<?xml version="1.0" encoding="UTF-8"?>

<!-- generated on 2024-12-03 16:56:12.865863 by cutRoutes.py UNKNOWN
  options: partition_4.net.xml viladecans.rou.xml <doubleminus>routes-output partition_4.rou.xml <doubleminus>orig-net viladecans.net.xml
-->

<routes xmlns:xsi="http://www.w3.org/2001/XMLSchema-instance" xsi:noNamespaceSchemaLocation="http://sumo.dlr.de/xsd/routes_file.xsd">
    <vehicle depart="24.00" id="24">
        <route edges="39528410 39528411 39528413 210809087 39295270 210809134 210809096#0 210809096#1 210809096#2 550629023#1 550629023#2 550629023#3 550629023#4 39295273#0 39295273#1 39295273#2 39522255 -211718696 -211718706 -39522253#1 -39522253#0 1040468917#0 1040468917#1 -212298821 212298815 -152005133#2 -152005133#1 -152005133#0 147260736 1040468918#1 609410343 22650506 609410345 609410344#0 609410344#1 22650507 609410327#0 609410327#1 609410327#2 609410333 609410324#0 609410324#1 609410324#2 609410324#3 609410324#4"/>
    </vehicle>
    <vehicle depart="25.00" id="25">
        <route edges="1188682904 1186547995 22650429 1040340959 1040340960 22650437 1040468918#0 1040468918#1 609410343 22650506 609410345 609410344#0 609410344#1 22650507 609410327#0 609410327#1 609410327#2 609410333 609410324#0 609410324#1 609410324#2 609410324#3 609410324#4"/>
    </vehicle>
    <vehicle depart="48.07" id="28" departLane="best" departSpeed="max">
        <route edges="-609410324#4 -609410324#3 -609410324#2 -609410324#1 -609410324#0 609410336 1186547996#0 1186547996#1 1188682902#0 1188682902#1 609410327#0 609410327#1 609410327#2 609410333 609410324#0 609410324#1 609410324#2 609410324#3 609410324#4"/>
    </vehicle>
    <vehicle depart="53.00" id="53">
        <route edges="-212298815 212298821 39522251#0 39522251#1 1040468917#0 1040468917#1 -212298821 212298815 -152005133#2 -152005133#1 -152005133#0 147260736 1040468918#1 609410343 22650506 609410345 609410344#0 609410344#1 22650507 609410327#0 609410327#1 609410327#2 609410333 609410324#0 609410324#1 609410324#2 609410324#3 609410324#4"/>
    </vehicle>
    <vehicle depart="131.00" id="131">
        <route edges="1186547995 22650429 1040340959 1040340960 22650437 1040468918#0 1040468918#1 609410343 22650506 609410345 609410344#0 609410344#1 22650507 609410327#0 609410327#1 609410327#2 609410333 609410324#0 609410324#1 609410324#2 609410324#3 609410324#4"/>
    </vehicle>
    <vehicle depart="137.00" id="137">
        <route edges="-39522252#3 -39522252#2 -39522252#1 -39522252#0 39522251#1 1040468917#0 1040468917#1 -212298821"/>
    </vehicle>
    <vehicle depart="141.00" id="141">
        <route edges="39522253#0 39522253#1 211718706 211718696 39522254 872378136 550629023#0 550629023#1 550629023#2 550629023#3 550629023#4 39295273#0 39295273#1 39295273#2 39522255 -211718696 -211718706 -39522253#1 -39522253#0 1040468917#0 1040468917#1 -212298821 212298815 -152005133#2 -152005133#1 -152005133#0 147260736 1040468918#1 609410343 22650506 609410345 609410344#0 609410344#1 22650507 609410327#0 609410327#1 609410327#2 609410333 609410324#0 609410324#1 609410324#2 609410324#3 609410324#4"/>
    </vehicle>
    <vehicle depart="146.00" id="146">
        <route edges="39528413 210809087 39295270 210809134 210809096#0 210809096#1 210809096#2 550629023#1 550629023#2 550629023#3 550629023#4 39295273#0 39295273#1 39295273#2 39522255 -211718696 -211718706 -39522253#1 -39522253#0 1040468917#0 1040468917#1 -212298821 212298815 -152005133#2 -152005133#1 -152005133#0 147260736 1040468918#1 609410343 22650506 609410345 609410344#0 609410344#1 22650507 609410327#0 609410327#1 609410327#2 609410333 609410324#0 609410324#1 609410324#2 609410324#3 609410324#4"/>
    </vehicle>
    <vehicle depart="198.00" id="198">
        <route edges="152005133#2 -212298815 212298821 39522251#0 39522251#1 1040468917#0 1040468917#1 -212298821 212298815 -152005133#2 -152005133#1 -152005133#0 147260736 1040468918#1 609410343 22650506 609410345 609410344#0 609410344#1 22650507 609410327#0 609410327#1 609410327#2 609410333 609410324#0 609410324#1 609410324#2 609410324#3 609410324#4"/>
    </vehicle>
    <vehicle depart="214.00" id="214">
        <route edges="609410342 1040468919#1 1040468919#2 1040340959 1040340960 22650437 1040468918#0 1040468918#1 609410343 22650506 609410345 609410344#0 609410344#1 22650507 609410327#0 609410327#1 609410327#2 609410333 609410324#0 609410324#1 609410324#2 609410324#3 609410324#4"/>
    </vehicle>
    <vehicle depart="229.00" id="229">
        <route edges="39521775 39521779 554413670 135588119 210809082 39522065 39528414 39528412 210809128 210809095#0 210809095#1 238357105 278026427 278026425 211940779 431959644 211940784 879359167 22650691#0 22650691#1 609410344#1 22650507 609410327#0 609410327#1 609410327#2 609410333 609410324#0 609410324#1 609410324#2 609410324#3 609410324#4"/>
    </vehicle>
    <vehicle depart="238.00" id="238">
        <route edges="278026425 211940779 431959644 211940784 879359167 22650691#0 22650691#1 609410344#1 22650507 609410327#0 609410327#1 609410327#2 609410333 609410324#0 609410324#1 609410324#2 609410324#3 609410324#4"/>
    </vehicle>
    <vehicle depart="257.00" id="257">
        <route edges="609410344#1 22650507 609410327#0 609410327#1 609410327#2 609410333 609410324#0 609410324#1 609410324#2 609410324#3 609410324#4"/>
    </vehicle>
    <vehicle depart="279.00" id="279">
        <route edges="918809595#0 918809595#1 495259656 -39522252#3 -39522252#2 -39522252#1 -39522252#0 39522251#1 1040468917#0 1040468917#1 -212298821 212298815 -152005133#2 -152005133#1 -152005133#0 147260736 1040468918#1 609410343 22650506 609410345 609410344#0 609410344#1 22650507 609410327#0 609410327#1 609410327#2 609410333 609410324#0 609410324#1 609410324#2 609410324#3 609410324#4"/>
    </vehicle>
    <vehicle depart="281.00" id="281">
        <route edges="210809087 39295270 210809134 210809096#0 210809096#1 210809096#2 550629023#1 550629023#2 550629023#3 550629023#4 39295273#0 39295273#1 39295273#2 39522255 -211718696 -211718706 -39522253#1 -39522253#0 1040468917#0 1040468917#1 -212298821 212298815 -152005133#2 -152005133#1 -152005133#0 147260736 1040468918#1 609410343 22650506 609410345 609410344#0 609410344#1 22650507 609410327#0 609410327#1 609410327#2 609410333 609410324#0 609410324#1 609410324#2 609410324#3 609410324#4"/>
    </vehicle>
    <vehicle depart="284.00" id="284">
        <route edges="39522255 -211718696 -211718706 -39522253#1 -39522253#0 1040468917#0 1040468917#1 -212298821 212298815 -152005133#2 -152005133#1 -152005133#0 147260736 1040468918#1 609410343 22650506 609410345 609410344#0 609410344#1 22650507 609410327#0 609410327#1 609410327#2 609410333 609410324#0 609410324#1 609410324#2 609410324#3 609410324#4"/>
    </vehicle>
    <vehicle depart="309.00" id="309">
        <route edges="495259656 -39522252#3 -39522252#2 -39522252#1 -39522252#0 39522251#1 1040468917#0 1040468917#1 -212298821 212298815 -152005133#2 -152005133#1 -152005133#0 147260736 1040468918#1 609410343 22650506 609410345 609410344#0 609410344#1 22650507 609410327#0 609410327#1 609410327#2 609410333 609410324#0 609410324#1 609410324#2 609410324#3 609410324#4"/>
    </vehicle>
    <vehicle depart="321.87" id="268" departLane="best" departSpeed="max">
        <route edges="-609410324#4 -609410324#3 -609410324#2 -609410324#1 -609410324#0 609410336 1186547996#0 1186547996#1 1188682902#0 1188682902#1 609410327#0 609410327#1 609410327#2 609410333 609410324#0 609410324#1 609410324#2 609410324#3 609410324#4"/>
    </vehicle>
    <vehicle depart="334.00" id="334">
        <route edges="22650692 23094061#0 23094061#1 23094061#2 23094061#3 128123916 128123912#0 128123912#1 128123912#2"/>
    </vehicle>
    <vehicle depart="345.00" id="345">
        <route edges="495259656 -39522252#3 -39522252#2 -39522252#1 -39522252#0 39522251#1 1040468917#0 1040468917#1 -212298821 212298815 -152005133#2 -152005133#1 -152005133#0 147260736 1040468918#1 609410343 22650506 609410345 609410344#0 609410344#1 22650507 609410327#0 609410327#1 609410327#2 609410333 609410324#0 609410324#1 609410324#2 609410324#3 609410324#4"/>
    </vehicle>
    <vehicle depart="399.00" id="399">
        <route edges="210809096#0 210809096#1 210809096#2 550629023#1 550629023#2 550629023#3 550629023#4 39295273#0 39295273#1 39295273#2 39522255 -211718696 -211718706 -39522253#1 -39522253#0 1040468917#0 1040468917#1 -212298821 212298815 -152005133#2 -152005133#1 -152005133#0 147260736 1040468918#1 609410343 22650506 609410345 609410344#0 609410344#1 22650507 609410327#0 609410327#1 609410327#2 609410333 609410324#0 609410324#1 609410324#2 609410324#3 609410324#4"/>
    </vehicle>
    <vehicle depart="408.00" id="408">
        <route edges="878736488#0 878736488#1 878736490#0 878736490#1 878736489 39445560#0 39445560#1 210809129 210809101 210809095#1 238357105 278026427 278026425 211940779 431959644 211940784 879359167 22650691#0 22650691#1 609410344#1 22650507 609410327#0 609410327#1 609410327#2 609410333 609410324#0 609410324#1 609410324#2 609410324#3 609410324#4"/>
    </vehicle>
    <vehicle depart="428.00" id="428">
        <route edges="609410324#2 609410324#3 609410324#4"/>
    </vehicle>
    <vehicle depart="458.00" id="458">
        <route edges="39528412 210809128 210809095#0 210809095#1 238357105 278026427 278026425 211940779 431959644 211940784 879359167 22650691#0 22650691#1 609410344#1 22650507 609410327#0 609410327#1 609410327#2 609410333 609410324#0 609410324#1 609410324#2 609410324#3 609410324#4"/>
    </vehicle>
    <vehicle depart="482.16" id="88" departLane="best" departSpeed="max">
        <route edges="-609410324#4 -609410324#3 -609410324#2 -609410324#1 -609410324#0 609410336 1186547996#0 1186547996#1 1188682902#0 609410340 -609410344#1 -609410344#0 -609410345 -22650506 609410342 1040468919#1 1040468919#2 1040340959 1040340960 22650437 22650440 152005133#0"/>
    </vehicle>
    <vehicle depart="483.33" id="125" departLane="best" departSpeed="max">
        <route edges="-609410324#4 -609410324#3 -609410324#2 -609410324#1 -609410324#0 609410336"/>
    </vehicle>
    <vehicle depart="485.74" id="203" departLane="best" departSpeed="max">
        <route edges="-609410324#4 -609410324#3 -609410324#2 -609410324#1 -609410324#0 609410336 1186547996#0 1186547996#1 1188682902#0 609410340 -609410344#1 -609410344#0 -609410345 -22650506 609410342 1040468919#1 1040468919#2 1040340959 1040340960 22650437 22650440 152005133#0 152005133#1 152005133#2 -212298815 212298821 39522251#0 39522251#1 1040468917#0 1040468917#1 -212298821 212298815"/>
    </vehicle>
    <vehicle depart="519.77" id="111" departLane="best" departSpeed="max">
        <route edges="-609410324#4 -609410324#3 -609410324#2 -609410324#1 -609410324#0 609410336 1186547996#0 1186547996#1 1188682902#0 1188682902#1 609410327#0 609410327#1 609410327#2 609410333 609410324#0 609410324#1 609410324#2 609410324#3 609410324#4"/>
    </vehicle>
    <vehicle depart="519.88" id="145" departLane="best" departSpeed="max">
        <route edges="-609410324#4 -609410324#3 -609410324#2 -609410324#1 -609410324#0 609410336 1186547996#0 1186547996#1 1188682902#0 1188682902#1 609410327#0 609410327#1 609410327#2 609410333 609410324#0 609410324#1 609410324#2 609410324#3 609410324#4"/>
    </vehicle>
    <vehicle depart="522.00" id="522">
        <route edges="879359167 22650691#0 22650691#1 -609410344#0 -609410345 -22650506 609410342 1040468919#1 1040468919#2 1040340959 1040340960 22650437 22650440 152005133#0 152005133#1 152005133#2 -212298815 212298821 39522251#0 39522251#1 39522253#0 39522253#1 211718706 211718696"/>
    </vehicle>
    <vehicle depart="525.00" id="525">
        <route edges="918809595#1 495259656 -39522252#3 -39522252#2 -39522252#1 -39522252#0 39522251#1 1040468917#0 1040468917#1 -212298821 212298815 -152005133#2 -152005133#1 -152005133#0 147260736 1040468918#1 609410343 22650506 609410345 609410344#0 609410344#1 22650507 609410327#0 609410327#1 609410327#2 609410333 609410324#0 609410324#1 609410324#2 609410324#3 609410324#4"/>
    </vehicle>
    <vehicle depart="526.00" id="526">
        <route edges="22650507 609410327#0 609410327#1 609410327#2 609410333 609410324#0 609410324#1 609410324#2 609410324#3 609410324#4"/>
    </vehicle>
    <vehicle depart="540.52" id="176" departLane="best" departSpeed="max">
        <route edges="-609410324#4 -609410324#3 -609410324#2 -609410324#1 -609410324#0 609410336 1186547996#0 1186547996#1 1188682902#0 609410340 -609410344#1 -609410344#0 -609410345 -22650506 609410342 1040468919#1 1040468919#2 1040340959 1040340960 22650437 22650440 152005133#0 152005133#1 152005133#2 -212298815 212298821 39522251#0 39522251#1 1040468917#0 1040468917#1 -212298821"/>
    </vehicle>
    <vehicle depart="552.00" id="552">
        <route edges="609410336 1186547996#0 1186547996#1 1188682902#0 1188682902#1 609410327#0 609410327#1 609410327#2 609410333 609410324#0 609410324#1 609410324#2 609410324#3 609410324#4"/>
    </vehicle>
    <vehicle depart="554.27" id="241" departLane="best" departSpeed="max">
        <route edges="-609410324#4 -609410324#3 -609410324#2 -609410324#1 -609410324#0 609410336 1186547996#0 1186547996#1 1188682902#0 609410340 -609410344#1 -609410344#0 -609410345 -22650506 609410342 1040468919#1 1040468919#2 1040340959 1040340960 22650437 1040468918#0 1040468918#1 609410343 22650506 609410345 609410344#0 609410344#1"/>
    </vehicle>
    <vehicle depart="559.18" id="205" departLane="best" departSpeed="max">
        <route edges="-609410324#4 -609410324#3 -609410324#2 -609410324#1 -609410324#0 609410336 1186547996#0 1186547996#1 1188682902#0 1188682902#1 609410327#0 609410327#1 609410327#2 609410333"/>
    </vehicle>
    <vehicle depart="562.37" id="182" departLane="best" departSpeed="max">
        <route edges="-609410324#4 -609410324#3 -609410324#2 -609410324#1 -609410324#0 609410336 1186547996#0 1186547996#1 1188682902#0 609410340 -609410344#1 -609410344#0 -609410345 -22650506 609410342 1040468919#1 23038718 96312017#1 314132716 431959647 211940780 211940782 238357106"/>
    </vehicle>
    <vehicle depart="565.00" id="565">
        <route edges="495259656 -39522252#3 -39522252#2 -39522252#1 -39522252#0 39522251#1 1040468917#0 1040468917#1 -212298821 212298815 -152005133#2 -152005133#1 -152005133#0 147260736 1040468918#1 609410343 22650506 609410345 609410344#0 609410344#1 22650507 609410327#0 609410327#1 609410327#2 609410333 609410324#0 609410324#1 609410324#2 609410324#3 609410324#4"/>
    </vehicle>
    <vehicle depart="573.00" id="573">
        <route edges="878736490#0 878736490#1 878736489 39445560#0 39445560#1 210809129 210809101 210809095#1 238357105 278026427 278026425 211940779 431959644 211940784 314132714 23094061#0 23094061#1 23094061#2 23094061#3 23094061#4 23094061#5"/>
    </vehicle>
    <vehicle depart="580.00" id="580">
        <route edges="152005133#2 -212298815 212298821 39522251#0 39522251#1 1040468917#0 1040468917#1 -212298821 212298815 -152005133#2 -152005133#1 -152005133#0 147260736 1040468918#1 609410343 22650506 609410345 609410344#0 609410344#1 22650507 609410327#0 609410327#1 609410327#2 609410333 609410324#0 609410324#1 609410324#2 609410324#3 609410324#4"/>
    </vehicle>
    <vehicle depart="585.63" id="269" departLane="best" departSpeed="max">
        <route edges="-609410324#4 -609410324#3 -609410324#2 -609410324#1 -609410324#0 609410336 1186547996#0 1186547996#1 1188682902#0 609410340 -609410344#1 -609410344#0 -609410345 -22650506 609410342 1040468919#1 1040468919#2 1040340959 1040340960 22650437 22650440 152005133#0 152005133#1 152005133#2 -212298815 212298821 39522251#0 39522251#1 39522253#0 39522253#1 211718706 211718696 39522254 872378136 550629023#0 550629023#1 550629023#2 550629023#3 550629023#4 39295273#0 39295273#1 39295273#2 39522255 -211718696"/>
    </vehicle>
    <vehicle depart="608.26" id="262" departLane="best" departSpeed="max">
        <route edges="-609410324#4 -609410324#3 -609410324#2 -609410324#1 -609410324#0 609410336 1186547996#0 1186547996#1 1188682902#0 1188682902#1 609410327#0 609410327#1 609410327#2 609410333 609410324#0 609410324#1 609410324#2 609410324#3 609410324#4"/>
    </vehicle>
    <vehicle depart="614.17" id="193" departLane="best" departSpeed="max">
        <route edges="-609410324#4 -609410324#3 -609410324#2 -609410324#1 -609410324#0 609410336 1186547996#0 1186547996#1 22650692 23094061#0 23094061#1 23094061#2 23094061#3 128123916 128123912#0 128123912#1 128123912#2"/>
    </vehicle>
    <vehicle depart="616.00" id="616">
        <route edges="39445559#2 39445559#3 39445559#4 39445559#5 564616058#0 564616058#1 39295273#0 39295273#1 39295273#2 39522255 -211718696 -211718706 -39522253#1 -39522253#0 1040468917#0 1040468917#1 -212298821 212298815 -152005133#2 -152005133#1 -152005133#0 147260736 1040468918#1 609410343 22650506 609410345 609410344#0 609410344#1 22650507 609410327#0 609410327#1 609410327#2 609410333 609410324#0 609410324#1 609410324#2 609410324#3 609410324#4"/>
    </vehicle>
    <vehicle depart="617.00" id="617">
        <route edges="39521779 554413670 135588119 210809082 39522065 39528414 39528412 210809128 210809095#0 210809095#1 238357105 278026427 278026425 211940779 431959644 211940784 879359167 22650691#0 22650691#1 609410344#1 22650507 609410327#0 609410327#1 609410327#2 609410333 609410324#0 609410324#1 609410324#2 609410324#3 609410324#4"/>
    </vehicle>
    <vehicle depart="619.00" id="305" departLane="best" departSpeed="max">
        <route edges="-609410324#4 -609410324#3 -609410324#2 -609410324#1 -609410324#0 609410336 1186547996#0 1186547996#1 1188682902#0 1188682902#1 609410327#0 609410327#1 609410327#2 609410333 609410324#0 609410324#1 609410324#2 609410324#3 609410324#4"/>
    </vehicle>
    <vehicle depart="625.00" id="625">
        <route edges="210809095#0 210809095#1 238357105 278026427 278026425 211940779 431959644 211940784 879359167 22650691#0 22650691#1 609410344#1 22650507 609410327#0 609410327#1 609410327#2 609410333 609410324#0 609410324#1 609410324#2 609410324#3 609410324#4"/>
    </vehicle>
    <vehicle depart="625.27" id="328" departLane="best" departSpeed="max">
        <route edges="-609410324#4 -609410324#3 -609410324#2 -609410324#1 -609410324#0 609410336 1186547996#0 1186547996#1 1188682902#0 609410340 -609410344#1 -609410344#0 -609410345 -22650506 609410342 1040468919#1 1040468919#2 1040340959 1040340960 22650437 22650440 152005133#0 152005133#1 152005133#2 -212298815 212298821 39522251#0 39522251#1 39522253#0 39522253#1 211718706 211718696 39522254 872378136 39522064#0"/>
    </vehicle>
    <vehicle depart="634.76" id="202" departLane="best" departSpeed="max">
        <route edges="-609410324#4 -609410324#3 -609410324#2 -609410324#1"/>
    </vehicle>
    <vehicle depart="675.40" id="358" departLane="best" departSpeed="max">
        <route edges="-609410324#4 -609410324#3 -609410324#2 -609410324#1 -609410324#0 609410336 1186547996#0 1186547996#1 1188682902#0 609410340 -609410344#1 -609410344#0 -609410345 -22650506 609410342 1040468919#1 1040468919#2 1040340959 1040340960 22650437 22650440 152005133#0 152005133#1 152005133#2"/>
    </vehicle>
    <vehicle depart="676.47" id="376" departLane="best" departSpeed="max">
        <route edges="-609410324#4 -609410324#3 -609410324#2 -609410324#1 -609410324#0 609410336 1186547996#0 1186547996#1 1188682902#0 609410340 -609410344#1 -609410344#0 -609410345 -22650506 609410342 1040468919#1 23038718 96312017#1 314132716 431959647 211940780 211940782"/>
    </vehicle>
    <vehicle depart="699.00" id="699">
        <route edges="-211718706 -39522253#1 -39522253#0 1040468917#0 1040468917#1 -212298821 212298815 -152005133#2 -152005133#1 -152005133#0 147260736 1040468918#1 609410343 22650506 609410345 609410344#0 609410344#1 22650507 609410327#0 609410327#1 609410327#2 609410333 609410324#0 609410324#1 609410324#2 609410324#3 609410324#4"/>
    </vehicle>
    <vehicle depart="704.46" id="352" departLane="best" departSpeed="max">
        <route edges="-609410324#4 -609410324#3 -609410324#2 -609410324#1 -609410324#0 609410336 1186547996#0 1186547996#1 1188682902#0 609410340 -609410344#1 -609410344#0 -609410345 -22650506 609410342 1040468919#1 23038718 96312017#1 314132716 431959647 211940780 211940782 1039073558"/>
    </vehicle>
    <vehicle depart="706.00" id="706">
        <route edges="152005133#1 152005133#2 -212298815 212298821 39522251#0 39522251#1 1040468917#0 1040468917#1 -212298821 212298815 -152005133#2 -152005133#1 -152005133#0 147260736 1040468918#1 609410343 22650506 609410345 609410344#0 609410344#1 22650507 609410327#0 609410327#1 609410327#2 609410333 609410324#0 609410324#1 609410324#2 609410324#3 609410324#4"/>
    </vehicle>
    <vehicle depart="713.00" id="713">
        <route edges="39528410 39528411 39528413 210809087 39295270 210809134 210809096#0 210809096#1 210809096#2 550629023#1 550629023#2 550629023#3 550629023#4 39295273#0 39295273#1 39295273#2 39522255 -211718696 -211718706 -39522253#1 -39522253#0 1040468917#0 1040468917#1 -212298821 212298815 -152005133#2 -152005133#1 -152005133#0 147260736 1040468918#1 609410343 22650506 609410345 609410344#0 609410344#1 22650507 609410327#0 609410327#1 609410327#2 609410333 609410324#0 609410324#1 609410324#2 609410324#3 609410324#4"/>
    </vehicle>
    <vehicle depart="727.00" id="727">
        <route edges="211940780 211940782 1039073558 1039073631 39295265 39528410 39528411 39528413 210809087 39295270 210809134 210809096#0 210809096#1 210809096#2 550629023#1 550629023#2 550629023#3 550629023#4 39295273#0 39295273#1 39295273#2 39522255 -211718696 -211718706 -39522253#1 -39522253#0 1040468917#0 1040468917#1 -212298821 212298815 -152005133#2 -152005133#1 -152005133#0 147260736 1040468918#1 609410343 22650506 609410345 609410344#0 609410344#1 22650507 609410327#0 609410327#1 609410327#2 609410333 609410324#0 609410324#1 609410324#2 609410324#3 609410324#4"/>
    </vehicle>
    <vehicle depart="729.13" id="395" departLane="best" departSpeed="max">
        <route edges="-609410324#4 -609410324#3 -609410324#2 -609410324#1 -609410324#0 609410336 1186547996#0 1186547996#1 1188682902#0 609410340 -609410344#1 -609410344#0 -609410345 -22650506 609410342 1040468919#1 23038718 96312017#1 314132716 431959647 211940780 211940782 1039073558 1039073631 39295265 39528410 39528411 39528413 210809087 39295270 210809134 210809096#0"/>
    </vehicle>
    <vehicle depart="749.94" id="367" departLane="best" departSpeed="max">
        <route edges="-609410324#4 -609410324#3 -609410324#2 -609410324#1 -609410324#0 609410336 1186547996#0 1186547996#1 1188682902#0 609410340 -609410344#1 -609410344#0 -609410345 -22650506 609410342 1040468919#1 23038718 96312017#1 314132716 431959647 211940780 211940782 1039073558 1039073631 39295265 39528410 39528411"/>
    </vehicle>
    <vehicle depart="755.00" id="755">
        <route edges="23038718 96312017#1 314132716 431959647 211940780 211940782 1039073558 1039073631 39295265 39528410 39528411 39528413 210809087 39295270 210809134 210809096#0 210809096#1 210809096#2 550629023#1 550629023#2 550629023#3 550629023#4 39295273#0 39295273#1 39295273#2 39522255 -211718696 -211718706 -39522253#1 -39522253#0 1040468917#0 1040468917#1 -212298821 212298815 -152005133#2 -152005133#1 -152005133#0 147260736 1040468918#1 609410343 22650506 609410345 609410344#0 609410344#1 22650507 609410327#0 609410327#1 609410327#2 609410333 609410324#0 609410324#1 609410324#2 609410324#3 609410324#4"/>
    </vehicle>
    <vehicle depart="756.76" id="391" departLane="best" departSpeed="max">
        <route edges="-609410324#4 -609410324#3 -609410324#2 -609410324#1 -609410324#0 609410336 1186547996#0 1186547996#1 1188682902#0 609410340 -609410344#1 -609410344#0 -609410345 -22650506 609410342 1040468919#1 23038718 96312017#1 314132716 431959647 211940780 211940782 1039073558 1039073631 39295265 39528410 39528411 39528413 210809087 39295270 210809134 210809096#0 210809096#1 210809096#2"/>
    </vehicle>
    <vehicle depart="759.00" id="759">
        <route edges="126641592#1 1186547995 22650429 1040340959 1040340960 22650437 1040468918#0 1040468918#1 609410343 22650506 609410345 609410344#0 609410344#1 22650507 609410327#0 609410327#1 609410327#2 609410333 609410324#0 609410324#1 609410324#2 609410324#3 609410324#4"/>
    </vehicle>
    <vehicle depart="771.75" id="521" departLane="best" departSpeed="max">
        <route edges="-609410324#4 -609410324#3 -609410324#2 -609410324#1 -609410324#0 609410336 1186547996#0 1186547996#1 22650692 23094061#0 23094061#1 23094061#2 23094061#3 128123916 128123912#0 128123912#1 128123912#2"/>
    </vehicle>
    <vehicle depart="778.99" id="465" departLane="best" departSpeed="max">
        <route edges="-609410324#4 -609410324#3 -609410324#2 -609410324#1 -609410324#0 609410336 1186547996#0 1186547996#1 1188682902#0 1188682902#1 609410327#0 609410327#1 609410327#2 609410333 609410324#0 609410324#1 609410324#2 609410324#3 609410324#4"/>
    </vehicle>
    <vehicle depart="781.46" id="472" departLane="best" departSpeed="max">
        <route edges="-609410324#4 -609410324#3 -609410324#2 -609410324#1 -609410324#0 609410336 1186547996#0 1186547996#1 1188682902#0 609410340 -609410344#1 -609410344#0 -609410345 -22650506 609410342 1040468919#1 1040468919#2 1040340959 1040340960 22650437 22650440 152005133#0 152005133#1 152005133#2 -212298815"/>
    </vehicle>
    <vehicle depart="781.49" id="452" departLane="best" departSpeed="max">
        <route edges="-609410324#4 -609410324#3 -609410324#2 -609410324#1 -609410324#0 609410336 1186547996#0 1186547996#1 22650692 23094061#0"/>
    </vehicle>
    <vehicle depart="811.68" id="493" departLane="best" departSpeed="max">
        <route edges="-609410324#4 -609410324#3 -609410324#2 -609410324#1 -609410324#0 609410336 1186547996#0 1186547996#1 22650692 23094061#0 23094061#1 23094061#2 23094061#3 128123916 128123912#0"/>
    </vehicle>
    <vehicle depart="816.26" id="378" departLane="best" departSpeed="max">
        <route edges="-609410324#4 -609410324#3 -609410324#2 -609410324#1 -609410324#0 609410336 1186547996#0 1186547996#1 22650692 23094061#0 23094061#1 23094061#2 23094061#3 128123916 128123912#0 128123912#1 128123912#2"/>
    </vehicle>
    <vehicle depart="827.00" id="827">
        <route edges="211718706 211718696 39522254 872378136 550629023#0 550629023#1 550629023#2 550629023#3 550629023#4 39295273#0 39295273#1 39295273#2 39522255 -211718696 -211718706 -39522253#1 -39522253#0 1040468917#0 1040468917#1 -212298821 212298815 -152005133#2 -152005133#1 -152005133#0 147260736 1040468918#1 609410343 22650506 609410345 609410344#0 609410344#1 22650507 609410327#0 609410327#1 609410327#2 609410333 609410324#0 609410324#1 609410324#2 609410324#3 609410324#4"/>
    </vehicle>
    <vehicle depart="863.00" id="863">
        <route edges="238357105 278026427 278026425 211940779 431959644 211940784 879359167 22650691#0 22650691#1 -609410344#0 -609410345 -22650506 609410342 1040468919#1 1040468919#2 1040340959 1040340960 22650437 22650440 152005133#0 152005133#1 152005133#2 -212298815 212298821 39522251#0 39522251#1 39522253#0 39522253#1 211718706 211718696 39522254 872378136 550629023#0 550629023#1 550629023#2 550629023#3 39522063#0 39522063#1 39522063#2 39522063#3 39522063#4 135588160#0 135588160#1 135588160#2 541727212"/>
    </vehicle>
    <vehicle depart="871.77" id="505" departLane="best" departSpeed="max">
        <route edges="-609410324#4 -609410324#3 -609410324#2 -609410324#1 -609410324#0 609410336 1186547996#0 1186547996#1 1188682902#0 609410340 -609410344#1 -609410344#0 -609410345 -22650506 609410342 1040468919#1 1040468919#2 1040340959 1040340960 22650437 22650440 152005133#0 152005133#1 152005133#2 -212298815 212298821 39522251#0 39522251#1 39522253#0 39522253#1 211718706 211718696 39522254 872378136 550629023#0 550629023#1 550629023#2 550629023#3 39522063#0 39522063#1 39522063#2 39522063#3 39522063#4 135588160#0 135588160#1 135588160#2 541727212 39672138#0"/>
    </vehicle>
    <vehicle depart="877.00" id="877">
        <route edges="-609410345 -22650506 609410342 1040468919#1 1040468919#2 1040340959 1040340960 22650437 1040468918#0 1040468918#1 609410343 22650506 609410345 609410344#0 609410344#1 22650507 609410327#0 609410327#1 609410327#2 609410333 609410324#0 609410324#1 609410324#2 609410324#3 609410324#4"/>
    </vehicle>
    <vehicle depart="878.71" id="633" departLane="best" departSpeed="max">
        <route edges="-609410324#4 -609410324#3"/>
    </vehicle>
    <vehicle depart="897.87" id="471" departLane="best" departSpeed="max">
        <route edges="-609410324#4 -609410324#3 -609410324#2 -609410324#1 -609410324#0 609410336 1186547996#0 1186547996#1 1188682902#0 1188682902#1 609410327#0 609410327#1 609410327#2 609410333 609410324#0 609410324#1 609410324#2 609410324#3 609410324#4"/>
    </vehicle>
    <vehicle depart="908.69" id="666" departLane="best" departSpeed="max">
        <route edges="-609410324#4 -609410324#3 -609410324#2 -609410324#1 -609410324#0 609410336 1186547996#0 1186547996#1 22650692 23094061#0 23094061#1 23094061#2 23094061#3 128123916 128123912#0 128123912#1 128123912#2"/>
    </vehicle>
    <vehicle depart="911.00" id="911">
        <route edges="554413673 116025923 39521779 554413670 135588119 210809082 39522065 39528414 39528412 210809128 210809095#0 210809095#1 238357105 278026427 278026425 211940779 431959644 211940784 879359167 22650691#0 22650691#1 609410344#1 22650507 609410327#0 609410327#1 609410327#2 609410333 609410324#0 609410324#1 609410324#2 609410324#3 609410324#4"/>
    </vehicle>
    <vehicle depart="929.65" id="567" departLane="best" departSpeed="max">
        <route edges="-609410324#4 -609410324#3 -609410324#2 -609410324#1 -609410324#0 609410336 1186547996#0 1186547996#1 22650692 23094061#0 23094061#1"/>
    </vehicle>
    <vehicle depart="945.00" id="945">