<?xml version="1.0" encoding="UTF-8"?>

<!-- generated on 2024-12-03 16:56:01.802094 by cutRoutes.py UNKNOWN
  options: partition_3.net.xml viladecans.rou.xml <doubleminus>routes-output partition_3.rou.xml <doubleminus>orig-net viladecans.net.xml
-->

<routes xmlns:xsi="http://www.w3.org/2001/XMLSchema-instance" xsi:noNamespaceSchemaLocation="http://sumo.dlr.de/xsd/routes_file.xsd">
    <vehicle depart="61.00" id="61">
        <route edges="909658959 -909658962 -770383776#7 -770383776#6 -770383776#5 -770383776#4 -770383776#3 -770383776#2 -770383776#1 -770383776#0 -770383777 -20279824#2 -20279824#1 -20279824#0 20279733 540512683#0 20279737 22699876#0 22699876#1 22699876#2 22699876#3 22699876#4"/>
    </vehicle>
    <vehicle depart="70.00" id="70">
        <route edges="20279595#10 20279595#11 20279708 540512683#4 540512683#5 540512683#6 540512683#7 540512683#0 20279737 22699876#0 22699876#1 22699876#2 22699876#3 22699876#4"/>
    </vehicle>
    <vehicle depart="98.70" id="25" departLane="best" departSpeed="max">
        <route edges="609410324#6 609410324#7 609410324#8 609410324#9 609410324#10 609410324#11 609410324#12 609410324#13 609410324#14 739521138#0 739521138#1 1036660548#0 1036660548#1 1036660548#2 1036660548#3 609410346#0 609410346#1 540512683#6 540512683#7 540512683#0 20279737 22699876#0 22699876#1 22699876#2 22699876#3 22699876#4"/>
    </vehicle>
    <vehicle depart="112.00" id="112">
        <route edges="-126641593#2 -126641593#1 126641603#0 126641603#1 126641603#2 126641603#3 126641603#4 126641603#5 126641603#6 126641603#7 126641603#8 126641603#9 126641603#10 126641603#11 126641603#12 126641603#13 126641603#14 126641603#15 126641603#16 126641603#17 126641603#18 126641603#19 20279595#9 20279595#10 20279595#11 20279708 540512683#4 540512683#5 540512683#6 540512683#7 540512683#0 20279737 22699876#0 22699876#1 22699876#2 22699876#3 22699876#4"/>
    </vehicle>
    <vehicle depart="121.00" id="121">
        <route edges="22699876#0 22699876#1 22699876#2 22699876#3 22699876#4"/>
    </vehicle>
    <vehicle depart="128.00" id="128">
        <route edges="-127409503#3 -127409503#2 -127409503#1 -127409503#0 126641603#8 126641603#9 126641603#10 126641603#11 126641603#12 126641603#13 126641603#14 126641603#15 126641603#16 126641603#17 126641603#18 126641603#19 20279595#9 20279595#10 20279595#11 20279708 540512683#4 540512683#5 540512683#6 540512683#7 540512683#0 20279737 22699876#0 22699876#1 22699876#2 22699876#3 22699876#4"/>
    </vehicle>
    <vehicle depart="157.00" id="157">
        <route edges="909658962 459026962#0 459026962#1 459026965 -770383776#6 -770383776#5 -770383776#4 -770383776#3 -770383776#2 -770383776#1 -770383776#0 -770383777 -20279824#2 -20279824#1 -20279824#0 20279733 540512683#0 20279737 22699876#0 22699876#1 22699876#2 22699876#3 22699876#4"/>
    </vehicle>
    <vehicle depart="160.52" id="53" departLane="best" departSpeed="max">
        <route edges="609410324#6 609410324#7 609410324#8 609410324#9 609410324#10 609410324#11 609410324#12 609410324#13 609410324#14 739521138#0 739521138#1 1036660548#0 1036660548#1 1036660548#2 1036660548#3 609410346#0 609410346#1 540512683#6 540512683#7 540512683#0 20279737 22699876#0 22699876#1 22699876#2 22699876#3 22699876#4"/>
    </vehicle>
    <vehicle depart="179.13" id="24" departLane="best" departSpeed="max">
        <route edges="609410324#6 609410324#7 609410324#8 609410324#9 609410324#10 609410324#11 609410324#12 609410324#13 609410324#14 739521138#0 739521138#1 1036660548#0 1036660548#1 1036660548#2 1036660548#3 609410346#0 609410346#1 540512683#6 540512683#7 540512683#0 20279737 22699876#0 22699876#1 22699876#2 22699876#3 22699876#4"/>
    </vehicle>
    <vehicle depart="198.22" id="131" departLane="best" departSpeed="max">
        <route edges="609410324#6 609410324#7 609410324#8 609410324#9 609410324#10 609410324#11 609410324#12 609410324#13 609410324#14 739521138#0 739521138#1 1036660548#0 1036660548#1 1036660548#2 1036660548#3 609410346#0 609410346#1 540512683#6 540512683#7 540512683#0 20279737 22699876#0 22699876#1 22699876#2 22699876#3 22699876#4"/>
    </vehicle>
    <vehicle depart="202.54" id="120" departLane="best" departSpeed="max">
        <route edges="-126641593#2 -126641593#1 126641603#0 126641603#1 126641603#2 126641603#3 126641603#4 126641603#5 126641603#6 126641603#7 126641603#8 126641603#9 126641603#10 126641603#11 126641603#12 126641603#13 126641603#14 126641603#15 126641603#16 126641603#17 126641603#18 126641603#19 20279595#9 20279595#10 20279595#11 20279708 540512683#4 609410347#0 609410347#1 -1036660548#3 -1036660548#2 -1036660548#1 -1036660548#0 -739521138#1 -739521138#0 -609410324#14 -609410324#13 -609410324#12 -609410324#11 -609410324#10 -609410324#9 -609410324#8 -609410324#7 -609410324#6"/>
    </vehicle>
    <vehicle depart="216.00" id="216">
        <route edges="-691372262#0 459026963 39529378#2 909658959 -909658962 -770383776#7 -770383776#6 -770383776#5 -770383776#4 -770383776#3 -770383776#2 -770383776#1 -770383776#0 -770383777 -20279824#2 -20279824#1 -20279824#0 20279733 540512683#0 20279737 22699876#0 22699876#1 22699876#2 22699876#3 22699876#4"/>
    </vehicle>
    <vehicle depart="221.75" id="65" departLane="best" departSpeed="max">
        <route edges="-22699876#4 -22699876#3 -22699876#2 -22699876#1 -22699876#0 20279758 540512683#2 20279717 -20279595#11 -20279595#10 -20279595#9 -126641603#19 -126641603#18 -126641603#17 -126641603#16 -126641603#15 -126641603#14 -126641603#13 -126641603#12 -126641603#11 -126641603#10 -126641603#9 -126641603#8 -126641603#7 -126641603#6 -126641603#5 -126641603#4 -126641603#3 -126641603#2 -126641603#1 -126641603#0 -126641593#0"/>
    </vehicle>
    <vehicle depart="235.00" id="235">
        <route edges="126641603#10 126641603#11 126641603#12 126641603#13 126641603#14 126641603#15 126641603#16 126641603#17 126641603#18 126641603#19 20279595#9 20279595#10 20279595#11 20279708 540512683#4 540512683#5 540512683#6 540512683#7 540512683#0 20279737 22699876#0 22699876#1 22699876#2 22699876#3 22699876#4"/>
    </vehicle>
    <vehicle depart="266.32" id="214" departLane="best" departSpeed="max">
        <route edges="609410324#6 609410324#7 609410324#8 609410324#9 609410324#10 609410324#11 609410324#12 609410324#13 609410324#14 739521138#0 739521138#1 1036660548#0 1036660548#1 1036660548#2 1036660548#3 609410346#0 609410346#1 540512683#6 20279726 20279824#0 20279824#1 20279824#2 770383777 770383776#0 770383776#1 770383776#2 770383776#3 770383776#4 770383776#5 770383776#6 770383776#7 39529378#0 112714561 691372262#0 691372262#1 691372262#2 691372262#3 691372262#4"/>
    </vehicle>
    <vehicle depart="276.00" id="276">
        <route edges="-20279824#1 -20279824#0 20279733 540512683#0 540512683#1 540512683#2 540512683#3 540512683#4 540512683#5 540512683#6 20279726 20279824#0 20279824#1 20279824#2 770383777 770383776#0 770383776#1 770383776#2"/>
    </vehicle>
    <vehicle depart="283.84" id="141" departLane="best" departSpeed="max">
        <route edges="609410324#6 609410324#7 609410324#8 609410324#9 609410324#10 609410324#11 609410324#12 609410324#13 609410324#14 739521138#0 739521138#1 1036660548#0 1036660548#1 1036660548#2 1036660548#3 609410346#0 609410346#1 540512683#6 540512683#7 540512683#0 20279737 22699876#0 22699876#1 22699876#2 22699876#3 22699876#4"/>
    </vehicle>
    <vehicle depart="284.84" id="82" departLane="best" departSpeed="max">
        <route edges="-22699876#4 -22699876#3 -22699876#2 -22699876#1 -22699876#0 20279758 540512683#2 20279717 -20279595#11 -20279595#10 -20279595#9 -126641603#19"/>
    </vehicle>
    <vehicle depart="286.55" id="269" departLane="best" departSpeed="max">
        <route edges="609410324#6 609410324#7 609410324#8 609410324#9 609410324#10 609410324#11 609410324#12 609410324#13 609410324#14 739521138#0 739521138#1 1036660548#0 1036660548#1 1036660548#2 1036660548#3 609410346#0 609410346#1 540512683#6 540512683#7 540512683#0 540512683#1 540512683#2 540512683#3 540512683#4 609410347#0 609410347#1 -1036660548#3 -1036660548#2 -1036660548#1 -1036660548#0 -739521138#1 -739521138#0 -609410324#14 -609410324#13 -609410324#12 -609410324#11 -609410324#10 -609410324#9 -609410324#8 -609410324#7 -609410324#6"/>
    </vehicle>
    <vehicle depart="292.04" id="257" departLane="best" departSpeed="max">
        <route edges="609410324#6 609410324#7 609410324#8 609410324#9 609410324#10 609410324#11 609410324#12 609410324#13 609410324#14 739521138#0 739521138#1 1036660548#0 1036660548#1 1036660548#2 1036660548#3 609410346#0 609410346#1 540512683#6 540512683#7 540512683#0 20279737 22699876#0 22699876#1 22699876#2 22699876#3 22699876#4"/>
    </vehicle>
    <vehicle depart="296.53" id="146" departLane="best" departSpeed="max">
        <route edges="609410324#6 609410324#7 609410324#8 609410324#9 609410324#10 609410324#11 609410324#12 609410324#13 609410324#14 739521138#0 739521138#1 1036660548#0 1036660548#1 1036660548#2 1036660548#3 609410346#0 609410346#1 540512683#6 540512683#7 540512683#0 20279737 22699876#0 22699876#1 22699876#2 22699876#3 22699876#4"/>
    </vehicle>
    <vehicle depart="303.42" id="88" departLane="best" departSpeed="max">
        <route edges="-22699876#4 -22699876#3 -22699876#2 -22699876#1 -22699876#0 20279758 540512683#2 540512683#3 540512683#4 609410347#0 609410347#1 -1036660548#3 -1036660548#2 -1036660548#1 -1036660548#0 -739521138#1 -739521138#0 -609410324#14 -609410324#13 -609410324#12 -609410324#11 -609410324#10 -609410324#9 -609410324#8 -609410324#7 -609410324#6"/>
    </vehicle>
    <vehicle depart="304.59" id="125" departLane="best" departSpeed="max">
        <route edges="-22699876#4 -22699876#3 -22699876#2 -22699876#1 -22699876#0 20279758 540512683#2 540512683#3 540512683#4 609410347#0 609410347#1 -1036660548#3 -1036660548#2 -1036660548#1 -1036660548#0 -739521138#1 -739521138#0 -609410324#14 -609410324#13 -609410324#12 -609410324#11 -609410324#10 -609410324#9 -609410324#8 -609410324#7 -609410324#6"/>
    </vehicle>
    <vehicle depart="306.42" id="198" departLane="best" departSpeed="max">
        <route edges="609410324#6 609410324#7 609410324#8 609410324#9 609410324#10 609410324#11 609410324#12 609410324#13 609410324#14 739521138#0 739521138#1 1036660548#0 1036660548#1 1036660548#2 1036660548#3 609410346#0 609410346#1 540512683#6 540512683#7 540512683#0 20279737 22699876#0 22699876#1 22699876#2 22699876#3 22699876#4"/>
    </vehicle>
    <vehicle depart="307.00" id="203" departLane="best" departSpeed="max">
        <route edges="-22699876#4 -22699876#3 -22699876#2 -22699876#1 -22699876#0 20279758 540512683#2 540512683#3 540512683#4 609410347#0 609410347#1 -1036660548#3 -1036660548#2 -1036660548#1 -1036660548#0 -739521138#1 -739521138#0 -609410324#14 -609410324#13 -609410324#12 -609410324#11 -609410324#10 -609410324#9 -609410324#8 -609410324#7 -609410324#6"/>
    </vehicle>
    <vehicle depart="308.00" id="308">
        <route edges="609410324#13 609410324#14 739521138#0 739521138#1 1036660548#0 1036660548#1 1036660548#2 1036660548#3 609410346#0 609410346#1 540512683#6 540512683#7 540512683#0 20279737 22699876#0 22699876#1 22699876#2 22699876#3 22699876#4"/>
    </vehicle>
    <vehicle depart="318.00" id="318">
        <route edges="-770383776#0 -770383777 -20279824#2 -20279824#1 -20279824#0 20279733 540512683#0 20279737 22699876#0 22699876#1 22699876#2 22699876#3 22699876#4"/>
    </vehicle>
    <vehicle depart="321.00" id="321">
        <route edges="459026964 -909658960 -909658962 -770383776#7 -770383776#6 -770383776#5 -770383776#4 -770383776#3 -770383776#2 -770383776#1 -770383776#0 -770383777 -20279824#2 -20279824#1 -20279824#0 20279733 540512683#0 20279737 22699876#0 22699876#1 22699876#2 22699876#3 22699876#4"/>
    </vehicle>
    <vehicle depart="325.00" id="325">
        <route edges="-909658962 -770383776#7 -770383776#6 -770383776#5 -770383776#4 -770383776#3 -770383776#2 -770383776#1 -770383776#0 -770383777 -20279824#2 -20279824#1 -20279824#0 20279733 540512683#0 20279737 22699876#0 22699876#1 22699876#2 22699876#3 22699876#4"/>
    </vehicle>
    <vehicle depart="328.00" id="328">
        <route edges="-127409503#5 -127409503#4 -127409503#3 -127409503#2 -127409503#1 -127409503#0 126641603#8 126641603#9 126641603#10 126641603#11 126641603#12 126641603#13 126641603#14 126641603#15 126641603#16 126641603#17 126641603#18 126641603#19 20279595#9 20279595#10 20279595#11 20279708 540512683#4 609410347#0 609410347#1 -1036660548#3 -1036660548#2 -1036660548#1 -1036660548#0 -739521138#1 -739521138#0 -609410324#14 -609410324#13 -609410324#12 -609410324#11 -609410324#10 -609410324#9 -609410324#8 -609410324#7 -609410324#6"/>
    </vehicle>
    <vehicle depart="334.04" id="56" departLane="best" departSpeed="max">
        <route edges="-22699876#4 -22699876#3 -22699876#2 -22699876#1 -22699876#0 20279758 540512683#2 540512683#3 540512683#4 540512683#5 540512683#6 20279726 20279824#0 20279824#1 20279824#2 770383777 770383776#0 770383776#1 770383776#2 770383776#3 770383776#4 770383776#5 770383776#6 770383776#7 39529378#0 112714561 691372262#0 691372262#1 691372262#2 691372262#3 691372262#4 691372262#5 691372261 117070373#0 117070373#1 -691372261 -691372262#5 -691372262#4 -691372262#3 -691372262#2 -691372262#1"/>
    </vehicle>
    <vehicle depart="343.42" id="238" departLane="best" departSpeed="max">
        <route edges="609410324#6 609410324#7 609410324#8 609410324#9 609410324#10 609410324#11 609410324#12 609410324#13 609410324#14 739521138#0 739521138#1 1036660548#0 1036660548#1 1036660548#2 1036660548#3 609410346#0 609410346#1 540512683#6 20279726 20279824#0 20279824#1 20279824#2 770383777 770383776#0 770383776#1 770383776#2 770383776#3 770383776#4 770383776#5 770383776#6 770383776#7 909658962 459026962#0"/>
    </vehicle>
    <vehicle depart="349.86" id="169" departLane="best" departSpeed="max">
        <route edges="-22699876#4 -22699876#3 -22699876#2 -22699876#1 -22699876#0 20279758 540512683#2 540512683#3 540512683#4 540512683#5 540512683#6 540512683#7 540512683#0 20279737 22699876#0 22699876#1 22699876#2 22699876#3 22699876#4"/>
    </vehicle>
    <vehicle depart="353.00" id="353">
        <route edges="609410324#8 609410324#9 609410324#10 609410324#11 609410324#12 609410324#13 609410324#14 739521138#0 739521138#1 1036660548#0 1036660548#1 1036660548#2 1036660548#3 609410346#0 609410346#1 540512683#6 540512683#7 540512683#0 20279737 22699876#0 22699876#1 22699876#2 22699876#3 22699876#4"/>
    </vehicle>
    <vehicle depart="361.78" id="176" departLane="best" departSpeed="max">
        <route edges="-22699876#4 -22699876#3 -22699876#2 -22699876#1 -22699876#0 20279758 540512683#2 540512683#3 540512683#4 609410347#0 609410347#1 -1036660548#3 -1036660548#2 -1036660548#1 -1036660548#0 -739521138#1 -739521138#0 -609410324#14 -609410324#13 -609410324#12 -609410324#11 -609410324#10 -609410324#9 -609410324#8 -609410324#7 -609410324#6"/>
    </vehicle>
    <vehicle depart="366.54" id="156" departLane="best" departSpeed="max">
        <route edges="-22699876#4 -22699876#3 -22699876#2 -22699876#1 -22699876#0 20279758 540512683#2 20279717 -20279595#11 -20279595#10 -20279595#9 -20279595#8 -20279595#7 -20279595#6"/>
    </vehicle>
    <vehicle depart="375.53" id="241" departLane="best" departSpeed="max">
        <route edges="-22699876#4 -22699876#3 -22699876#2 -22699876#1 -22699876#0 20279758 540512683#2 540512683#3 540512683#4 609410347#0 609410347#1 -1036660548#3 -1036660548#2 -1036660548#1 -1036660548#0 -739521138#1 -739521138#0 -609410324#14 -609410324#13 -609410324#12 -609410324#11 -609410324#10 -609410324#9 -609410324#8 -609410324#7 -609410324#6"/>
    </vehicle>
    <vehicle depart="380.44" id="205" departLane="best" departSpeed="max">
        <route edges="-22699876#4 -22699876#3 -22699876#2 -22699876#1 -22699876#0 20279758 540512683#2 540512683#3 540512683#4 609410347#0 609410347#1 -1036660548#3 -1036660548#2 -1036660548#1 -1036660548#0 -739521138#1 -739521138#0 -609410324#14 -609410324#13 -609410324#12 -609410324#11 -609410324#10 -609410324#9 -609410324#8 -609410324#7 -609410324#6"/>
    </vehicle>
    <vehicle depart="383.62" id="182" departLane="best" departSpeed="max">
        <route edges="-22699876#4 -22699876#3 -22699876#2 -22699876#1 -22699876#0 20279758 540512683#2 540512683#3 540512683#4 609410347#0 609410347#1 -1036660548#3 -1036660548#2 -1036660548#1 -1036660548#0 -739521138#1 -739521138#0 -609410324#14 -609410324#13 -609410324#12 -609410324#11 -609410324#10 -609410324#9 -609410324#8 -609410324#7 -609410324#6"/>
    </vehicle>
    <vehicle depart="399.39" id="284" departLane="best" departSpeed="max">
        <route edges="609410324#6 609410324#7 609410324#8 609410324#9 609410324#10 609410324#11 609410324#12 609410324#13 609410324#14 739521138#0 739521138#1 1036660548#0 1036660548#1 1036660548#2 1036660548#3 609410346#0 609410346#1 540512683#6 540512683#7 540512683#0 20279737 22699876#0 22699876#1 22699876#2 22699876#3 22699876#4"/>
    </vehicle>
    <vehicle depart="401.99" id="209" departLane="best" departSpeed="max">
        <route edges="-22699876#4 -22699876#3 -22699876#2 -22699876#1 -22699876#0 20279758 540512683#2 20279717 -20279595#11 -20279595#10 -20279595#9 -126641603#19 -126641603#18 -126641603#17 -126641603#16 -126641603#15 -126641603#14 -126641603#13 -126641603#12 -126641603#11 -126641603#10 -126641603#9 -126641603#8 -126641603#7 -126641603#6"/>
    </vehicle>
    <vehicle depart="409.00" id="409">
        <route edges="609410324#10 609410324#11 609410324#12 609410324#13 609410324#14 739521138#0 739521138#1 1036660548#0 1036660548#1 1036660548#2 1036660548#3 609410346#0 609410346#1 540512683#6 540512683#7 540512683#0 20279737 22699876#0 22699876#1 22699876#2 22699876#3 22699876#4"/>
    </vehicle>
    <vehicle depart="412.41" id="187" departLane="best" departSpeed="max">
        <route edges="-22699876#4 -22699876#3 -22699876#2 -22699876#1 -22699876#0 20279758 540512683#2 20279717 -20279595#11 -20279595#10 -20279595#9 -126641603#19 -126641603#18 -126641603#17"/>
    </vehicle>
    <vehicle depart="421.79" id="177" departLane="best" departSpeed="max">
        <route edges="-22699876#4 -22699876#3 -22699876#2 -22699876#1 -22699876#0 20279758 540512683#2 540512683#3 540512683#4 540512683#5 540512683#6 20279726 20279824#0 20279824#1 20279824#2 770383777 770383776#0 770383776#1 770383776#2 770383776#3 770383776#4 770383776#5 770383776#6 770383776#7 39529378#0 112714561 691372262#0 691372262#1 691372262#2 691372262#3 691372262#4 691372262#5 691372261 117070373#0 117070373#1 -691372261 -691372262#5 -691372262#4 -691372262#3 -691372262#2 -691372262#1"/>
    </vehicle>
    <vehicle depart="424.76" id="281" departLane="best" departSpeed="max">
        <route edges="609410324#6 609410324#7 609410324#8 609410324#9 609410324#10 609410324#11 609410324#12 609410324#13 609410324#14 739521138#0 739521138#1 1036660548#0 1036660548#1 1036660548#2 1036660548#3 609410346#0 609410346#1 540512683#6 540512683#7 540512683#0 20279737 22699876#0 22699876#1 22699876#2 22699876#3 22699876#4"/>
    </vehicle>
    <vehicle depart="426.56" id="229" departLane="best" departSpeed="max">
        <route edges="609410324#6 609410324#7 609410324#8 609410324#9 609410324#10 609410324#11 609410324#12 609410324#13 609410324#14 739521138#0 739521138#1 1036660548#0 1036660548#1 1036660548#2 1036660548#3 609410346#0 609410346#1 540512683#6 540512683#7 540512683#0 20279737 22699876#0 22699876#1 22699876#2 22699876#3 22699876#4"/>
    </vehicle>
    <vehicle depart="435.43" id="193" departLane="best" departSpeed="max">
        <route edges="-22699876#4 -22699876#3 -22699876#2 -22699876#1 -22699876#0 20279758 540512683#2 540512683#3 540512683#4 609410347#0 609410347#1 -1036660548#3 -1036660548#2 -1036660548#1 -1036660548#0 -739521138#1 -739521138#0 -609410324#14 -609410324#13 -609410324#12 -609410324#11 -609410324#10 -609410324#9 -609410324#8 -609410324#7 -609410324#6"/>
    </vehicle>
    <vehicle depart="439.55" id="261" departLane="best" departSpeed="max">
        <route edges="-22699876#4 -22699876#3 -22699876#2 -22699876#1 -22699876#0 20279758 540512683#2 540512683#3 540512683#4 540512683#5 540512683#6 20279726 20279824#0 20279824#1 20279824#2 770383777 770383776#0 770383776#1 770383776#2 770383776#3 770383776#4 770383776#5 770383776#6 770383776#7 909658962 909658960 909658961#0"/>
    </vehicle>
    <vehicle depart="455.71" id="428" departLane="best" departSpeed="max">
        <route edges="609410324#6 609410324#7 609410324#8 609410324#9 609410324#10 609410324#11 609410324#12 609410324#13 609410324#14 739521138#0 739521138#1 1036660548#0 1036660548#1 1036660548#2 1036660548#3 609410346#0 609410346#1 540512683#6 540512683#7 540512683#0 20279737 22699876#0 22699876#1 22699876#2 22699876#3 22699876#4"/>
    </vehicle>
    <vehicle depart="456.01" id="202" departLane="best" departSpeed="max">
        <route edges="-22699876#4 -22699876#3 -22699876#2 -22699876#1 -22699876#0 20279758 540512683#2 540512683#3 540512683#4 609410347#0 609410347#1 -1036660548#3 -1036660548#2 -1036660548#1 -1036660548#0 -739521138#1 -739521138#0 -609410324#14 -609410324#13 -609410324#12 -609410324#11 -609410324#10 -609410324#9 -609410324#8 -609410324#7 -609410324#6"/>
    </vehicle>
    <vehicle depart="458.33" id="334" departLane="best" departSpeed="max">
        <route edges="-126641593#2 -126641593#1 126641603#0 126641603#1 126641603#2 126641603#3 126641603#4 126641603#5 126641603#6 126641603#7 126641603#8 126641603#9 126641603#10 126641603#11 126641603#12 126641603#13 126641603#14 126641603#15 126641603#16 126641603#17 126641603#18 126641603#19 20279595#9 20279595#10 20279595#11 20279708 540512683#4 540512683#5 540512683#6 540512683#7 540512683#0 20279737 22699876#0 22699876#1 22699876#2 22699876#3 22699876#4"/>
    </vehicle>
    <vehicle depart="470.92" id="279" departLane="best" departSpeed="max">
        <route edges="609410324#6 609410324#7 609410324#8 609410324#9 609410324#10 609410324#11 609410324#12 609410324#13 609410324#14 739521138#0 739521138#1 1036660548#0 1036660548#1 1036660548#2 1036660548#3 609410346#0 609410346#1 540512683#6 540512683#7 540512683#0 20279737 22699876#0 22699876#1 22699876#2 22699876#3 22699876#4"/>
    </vehicle>
    <vehicle depart="488.09" id="309" departLane="best" departSpeed="max">
        <route edges="609410324#6 609410324#7 609410324#8 609410324#9 609410324#10 609410324#11 609410324#12 609410324#13 609410324#14 739521138#0 739521138#1 1036660548#0 1036660548#1 1036660548#2 1036660548#3 609410346#0 609410346#1 540512683#6 540512683#7 540512683#0 20279737 22699876#0 22699876#1 22699876#2 22699876#3 22699876#4"/>
    </vehicle>
    <vehicle depart="489.00" id="489">
        <route edges="1036660548#0 1036660548#1 1036660548#2 1036660548#3 609410346#0 609410346#1 540512683#6 540512683#7 540512683#0 20279737 22699876#0 22699876#1 22699876#2 22699876#3 22699876#4"/>
    </vehicle>
    <vehicle depart="491.76" id="295" departLane="best" departSpeed="max">
        <route edges="-22699876#4 -22699876#3 -22699876#2 -22699876#1 -22699876#0 20279758 540512683#2 540512683#3 540512683#4 540512683#5 540512683#6 20279726 20279824#0 20279824#1 20279824#2 770383777 770383776#0 770383776#1 770383776#2 770383776#3 770383776#4 770383776#5 770383776#6 770383776#7 39529378#0 39529378#1 39529378#2 909658959 -909658962 -770383776#7 -770383776#6 -770383776#5 -770383776#4 -770383776#3 -770383776#2 -770383776#1"/>
    </vehicle>
    <vehicle depart="496.65" id="358" departLane="best" departSpeed="max">
        <route edges="-22699876#4 -22699876#3 -22699876#2 -22699876#1 -22699876#0 20279758 540512683#2 540512683#3 540512683#4 609410347#0 609410347#1 -1036660548#3 -1036660548#2 -1036660548#1 -1036660548#0 -739521138#1 -739521138#0 -609410324#14 -609410324#13 -609410324#12 -609410324#11 -609410324#10 -609410324#9 -609410324#8 -609410324#7 -609410324#6"/>
    </vehicle>
    <vehicle depart="506.74" id="351" departLane="best" departSpeed="max">
        <route edges="-22699876#4 -22699876#3 -22699876#2 -22699876#1 -22699876#0 20279758 540512683#2 20279717 -20279595#11 -20279595#10 -20279595#9 -126641603#19 -126641603#18 -126641603#17 -126641603#16 -126641603#15 -126641603#14 -126641603#13 -126641603#12 -126641603#11 -126641603#10 -126641603#9 -126641603#8 -126641603#7 -126641603#6 -126641603#5 -126641603#4 -126641603#3"/>
    </vehicle>
    <vehicle depart="522.33" id="316" departLane="best" departSpeed="max">
        <route edges="-22699876#4 -22699876#3 -22699876#2 -22699876#1 -22699876#0 20279758 540512683#2 20279717 -20279595#11 -20279595#10"/>
    </vehicle>
    <vehicle depart="523.36" id="366" departLane="best" departSpeed="max">
        <route edges="-22699876#4 -22699876#3 -22699876#2 -22699876#1 -22699876#0 20279758 540512683#2 540512683#3 540512683#4 540512683#5 540512683#6 20279726 20279824#0 20279824#1 20279824#2 770383777 770383776#0 770383776#1 770383776#2 770383776#3 770383776#4 770383776#5 770383776#6 770383776#7 39529378#0 39529378#1 39529378#2 909658959 -909658962 -770383776#7 -770383776#6 -770383776#5 -770383776#4 -770383776#3 -770383776#2 -770383776#1 -770383776#0"/>
    </vehicle>
    <vehicle depart="524.09" id="345" departLane="best" departSpeed="max">
        <route edges="609410324#6 609410324#7 609410324#8 609410324#9 609410324#10 609410324#11 609410324#12 609410324#13 609410324#14 739521138#0 739521138#1 1036660548#0 1036660548#1 1036660548#2 1036660548#3 609410346#0 609410346#1 540512683#6 540512683#7 540512683#0 20279737 22699876#0 22699876#1 22699876#2 22699876#3 22699876#4"/>
    </vehicle>
    <vehicle depart="525.71" id="352" departLane="best" departSpeed="max">
        <route edges="-22699876#4 -22699876#3 -22699876#2 -22699876#1 -22699876#0 20279758 540512683#2 540512683#3 540512683#4 609410347#0 609410347#1 -1036660548#3 -1036660548#2 -1036660548#1 -1036660548#0 -739521138#1 -739521138#0 -609410324#14 -609410324#13 -609410324#12 -609410324#11 -609410324#10 -609410324#9 -609410324#8 -609410324#7 -609410324#6"/>
    </vehicle>
    <vehicle depart="526.79" id="399" departLane="best" departSpeed="max">
        <route edges="609410324#6 609410324#7 609410324#8 609410324#9 609410324#10 609410324#11 609410324#12 609410324#13 609410324#14 739521138#0 739521138#1 1036660548#0 1036660548#1 1036660548#2 1036660548#3 609410346#0 609410346#1 540512683#6 540512683#7 540512683#0 20279737 22699876#0 22699876#1 22699876#2 22699876#3 22699876#4"/>
    </vehicle>
    <vehicle depart="528.00" id="528">
        <route edges="20279708 540512683#4 540512683#5 540512683#6 540512683#7 540512683#0 540512683#1 540512683#2 20279717 -20279595#11 -20279595#10 -20279595#9 -126641603#19 -126641603#18 -126641603#17 -126641603#16 -126641603#15 -126641603#14 -126641603#13 -126641603#12 -126641603#11 -126641603#10 -126641603#9 -126641603#8 -126641603#7 -126641603#6 -126641603#5 -126641603#4 -126641603#3 -126641603#2 -126641603#1 -126641603#0 126641593#1 126641593#2 126641593#3"/>
    </vehicle>
    <vehicle depart="550.39" id="395" departLane="best" departSpeed="max">
        <route edges="-22699876#4 -22699876#3 -22699876#2 -22699876#1 -22699876#0 20279758 540512683#2 540512683#3 540512683#4 609410347#0 609410347#1 -1036660548#3 -1036660548#2 -1036660548#1 -1036660548#0 -739521138#1 -739521138#0 -609410324#14 -609410324#13 -609410324#12 -609410324#11 -609410324#10 -609410324#9 -609410324#8 -609410324#7 -609410324#6"/>
    </vehicle>
    <vehicle depart="554.61" id="331" departLane="best" departSpeed="max">
        <route edges="-22699876#4"/>
    </vehicle>
    <vehicle depart="555.51" id="327" departLane="best" departSpeed="max">
        <route edges="-22699876#4 -22699876#3 -22699876#2 -22699876#1 -22699876#0 20279758 540512683#2 20279717 -20279595#11 -20279595#10 -20279595#9 -126641603#19 -126641603#18 -126641603#17 -126641603#16 -126641603#15 -126641603#14 -126641603#13 -126641603#12 -126641603#11 -126641603#10 -126641603#9 -126641603#8 -126641603#7 -126641603#6 -126641603#5 -126641603#4 -126641603#3 -126641603#2 -126641603#1 -126641603#0 126641593#1 126641593#2 126641593#3 126641593#4 126641593#5 126641593#6 126641593#7 126641593#8 126641593#9"/>
    </vehicle>
    <vehicle depart="560.72" id="526" departLane="best" departSpeed="max">
        <route edges="609410324#6 609410324#7 609410324#8 609410324#9 609410324#10 609410324#11 609410324#12 609410324#13 609410324#14 739521138#0 739521138#1 1036660548#0 1036660548#1 1036660548#2 1036660548#3 609410346#0 609410346#1 540512683#6 540512683#7 540512683#0 20279737 22699876#0 22699876#1 22699876#2 22699876#3 22699876#4"/>
    </vehicle>
    <vehicle depart="570.00" id="570">
        <route edges="609410324#13 609410324#14 739521138#0 739521138#1 1036660548#0 1036660548#1 1036660548#2 1036660548#3 609410346#0 609410346#1 540512683#6 540512683#7 540512683#0 20279737 22699876#0 22699876#1 22699876#2 22699876#3 22699876#4"/>
    </vehicle>
    <vehicle depart="571.18" id="408" departLane="best" departSpeed="max">
        <route edges="609410324#6 609410324#7 609410324#8 609410324#9 609410324#10 609410324#11 609410324#12 609410324#13 609410324#14 739521138#0 739521138#1 1036660548#0 1036660548#1 1036660548#2 1036660548#3 609410346#0 609410346#1 540512683#6 540512683#7 540512683#0 20279737 22699876#0 22699876#1 22699876#2 22699876#3 22699876#4"/>
    </vehicle>
    <vehicle depart="571.20" id="367" departLane="best" departSpeed="max">
        <route edges="-22699876#4 -22699876#3 -22699876#2 -22699876#1 -22699876#0 20279758 540512683#2 540512683#3 540512683#4 609410347#0 609410347#1 -1036660548#3 -1036660548#2 -1036660548#1 -1036660548#0 -739521138#1 -739521138#0 -609410324#14 -609410324#13 -609410324#12 -609410324#11 -609410324#10 -609410324#9 -609410324#8 -609410324#7 -609410324#6"/>
    </vehicle>
    <vehicle depart="576.97" id="336" departLane="best" departSpeed="max">