<?xml version="1.0" encoding="UTF-8"?>

<!-- generated on 2024-12-03 16:55:50.566040 by cutRoutes.py UNKNOWN
  options: partition_2.net.xml viladecans.rou.xml <doubleminus>routes-output partition_2.rou.xml <doubleminus>orig-net viladecans.net.xml
-->

<routes xmlns:xsi="http://www.w3.org/2001/XMLSchema-instance" xsi:noNamespaceSchemaLocation="http://sumo.dlr.de/xsd/routes_file.xsd">
    <vehicle depart="12.10" id="2" departLane="best" departSpeed="max">
        <route edges="58801797#1 58801797#2 103964838#3 103964838#4 103964838#5 103964838#6 103964838#7 103964838#0 103964838#1 110058643#0 110058643#1"/>
    </vehicle>
    <vehicle depart="16.00" id="16">
        <route edges="22818655#0"/>
    </vehicle>
    <vehicle depart="27.00" id="27">
        <route edges="406908592#4 406908592#5 406908592#6 665553811#0 665553811#1 665553811#2 437982468#0 437982468#1 437518129#4 437518129#5 437518129#6 437518129#7 437518129#0 437518131#0 437518131#1 437518131#2 437518127#4 -437518125#1 -437518125#0 304278509#2 304278509#3 304278509#4 437519469#2 540512682#0 540512682#1 154766486#0 154766486#1 154766486#2 154766486#3 154766486#4 437519685#0 437519685#1 540512681 564116378#0 564116378#1 437519467#0 437519467#1 437519467#2 437519467#3 437519467#4 437519467#5 383315644#0 383315644#1 383315644#2 383315644#3 383315644#4 540512680#0 34898121#0 34898121#1 34898121#2 34898121#3 34898121#4 34898121#5"/>
    </vehicle>
    <vehicle depart="34.00" id="34">
        <route edges="103968656 232224165 137899131#2 564116393#0 564116393#1 103306925#0 103306925#1 208428858 208428861#0 208428861#1 208428861#2 208428861#3 208428861#4 208428861#5 383315645#0 383315645#1 383315645#2 564116378#1 437519467#0 437519467#1 437519467#2 437519467#3 437519467#4 437519467#5 383315644#0 383315644#1 383315644#2 383315644#3 383315644#4 540512680#0 540512680#1 564116390 154766492#0 154766492#1 154766492#2 540512679#0 540512679#1 540714691 154766483#0 154766483#1"/>
    </vehicle>
    <vehicle depart="44.00" id="44">
        <route edges="-188839136#1 -188839136#0 -188839137 188839135 -461396941 -22818654#3 -22818654#2 -22818654#1 -22818654#0 -564116376 564116377 154766478#0 154766478#1 154766478#2 383315644#0 383315644#1 383315644#2 383315644#3 383315644#4 540512680#0 34898121#0 34898121#1 34898121#2 34898121#3 34898121#4 34898121#5 34898121#6 34898121#7 103967427#1 110058635 564116392#0 564116392#1 1232198388 110058622#0 110058622#1 103965296#2 103965296#3 110058633#0 110058633#1 110058633#2 103964843#4 103964843#5 110058640#0 110058640#1 110058640#2 103964838#5 103964838#6 103964838#7 103964838#0 103964838#1 110058643#0 110058643#1"/>
    </vehicle>
    <vehicle depart="51.81" id="36" departLane="best" departSpeed="max">
        <route edges="58801798#5 58801798#6 58801798#7 58801798#8 58801798#9 103964843#2 95720635#0 95720635#1 95720635#2 103965296#5 103965296#6 103965296#0 103966570#0 103966570#1 103966570#2 103966571#0 103966571#1 103967428#0 103967428#1 564116391 567558167 103967429#0 103967429#1 103967429#2"/>
    </vehicle>
    <vehicle depart="54.00" id="54">
        <route edges="178128361 441661952 232224166#0 103968656 232224167#0 232224167#1 232224167#2 232224167#3 232224167#4 232224167#5 103965296#3 103965296#4 103965296#5 -1244072109#8 -1244072109#7 -1244072109#6 -1244072109#5"/>
    </vehicle>
    <vehicle depart="59.00" id="59">
        <route edges="34898121#1 34898121#2 34898121#3 34898121#4 34898121#5 34898121#6 34898121#7 103967427#1 1232198390 564116391 22818685#0 22818685#1 1232986978#0 1232986978#1 1232986978#2 1113306549#0 1113306549#1 1113306549#2 1113306549#3"/>
    </vehicle>
    <vehicle depart="65.00" id="65">
        <route edges="103964847#2 103964843#1 103964843#2 95720635#0 95720635#1 95720635#2 103965296#5 103965296#6 103965296#0 103966570#0 103966570#1 103966570#2 103966571#0 103966571#1 1232198389 564116392#0 103966574#0 103966574#1 564116393#1 103306925#0 103306925#1 208428858 208428861#0 208428861#1 208428861#2 208428861#3 208428861#4 208428861#5 383315645#0 383315645#1 383315645#2 564116378#1 437519466 540714687 165554898#0 165554898#1 1024923882#0 1024923882#1 1024923882#2 437519684#0 437519684#1 437519684#2 437519469#0 437519469#1 437519469#2 -1033859678#1 -1033859678#0 -22699885 -22699876#8 -22699876#7 -22699876#6"/>
    </vehicle>
    <vehicle depart="67.00" id="67">
        <route edges="-154766478#2 -154766478#1 -154766478#0 383315646#0 383315646#1 383315646#2 383315646#3 383315646#4 540714687 540714686 540512681 564116378#0 564116378#1 437519467#0 437519467#1 437519467#2 437519467#3 437519467#4 437519467#5 383315644#0 383315644#1 383315644#2 383315644#3 383315644#4 540512680#0 540512680#1 564116390 154766492#0 154766492#1 154766492#2 540512679#0 540512679#1 232119940 154766475#0 154766475#1"/>
    </vehicle>
    <vehicle depart="73.00" id="73">
        <route edges="22818685#0 22818685#1 1232986978#0 1232986978#1 1232986978#2 1113306549#0 1113306549#1 1113306549#2 1113306549#3"/>
    </vehicle>
    <vehicle depart="77.00" id="77">
        <route edges="-22699953 -437519470 -463044911 -22699949 436785243 437982467#0 437982467#1 437518127#2 437518127#3 437518127#4 437518127#5 437518127#0 374962805#0 374962805#1 437982466 463044911 437519470 22699953 188839137 188839136#0 188839136#1 22699980#1"/>
    </vehicle>
    <vehicle depart="90.00" id="90">
        <route edges="564116377 383315646#0 383315646#1 383315646#2 383315646#3 383315646#4 540714687 165554898#0 165554898#1 1024923882#0 1024923882#1 1024923882#2 437519684#0 437519684#1 437519684#2 437519469#0 374962806#0 374962806#1 374962806#2 374962806#3 374962806#4 437518125#1 437518127#5 437518127#0 374962805#0 374962805#1 437982466"/>
    </vehicle>
    <vehicle depart="103.20" id="14" departLane="best" departSpeed="max">
        <route edges="34888155#0 34888155#1"/>
    </vehicle>
    <vehicle depart="109.00" id="109">
        <route edges="-448728203#5 -448728203#4 -448728203#3 -448728203#2 -448728203#1 -448728203#0 -104785011#2 -104785011#1 -104785011#0 -178128362#1 -178128362#0 178128361 441661952 232224166#0 103968656 232224165 137899131#2 564116393#0 564116393#1 103306925#0 103306925#1 208428858 208428861#0 208428861#1 208428861#2 208428861#3 208428861#4 208428861#5 383315645#0 383315645#1 383315645#2 564116378#1 437519467#0 437519467#1 437519467#2 437519467#3 437519467#4 437519467#5 383315644#0 383315644#1 383315644#2 383315644#3 383315644#4 540512680#0 540512680#1 564116390 154766492#0 154766492#1 154766492#2 540512679#0 540512679#1 540714691 154766483#0 154766483#1"/>
    </vehicle>
    <vehicle depart="113.00" id="113">
        <route edges="208428861#0 208428861#1 208428861#2 208428861#3 208428861#4 208428861#5 383315645#0 383315645#1 383315645#2 564116378#1 437519467#0 437519467#1 437519467#2 437519467#3 437519467#4 437519467#5 383315644#0 383315644#1 383315644#2 383315644#3 383315644#4 540512680#0 540512680#1 564116390 154766492#0 154766492#1 154766492#2 540512679#0 540512679#1 232119940 154766475#0 154766475#1"/>
    </vehicle>
    <vehicle depart="116.00" id="116">
        <route edges="304278509#1 437518125#0 437518125#1 437518127#5 437518127#0 437518127#1 437518127#2 437518128#0 437518128#1 437518128#2 437518129#2 406908595#0 406908595#1 437982469"/>
    </vehicle>
    <vehicle depart="119.00" id="119">
        <route edges="304278509#0 304278509#1 304278509#2 304278509#3 304278509#4 437519469#2 540512682#0 540512682#1 154766486#0 154766486#1 154766486#2 154766486#3 154766486#4 437519685#0 437519685#1 540512681 437519468#0 437519468#1 437519468#2 383315643#0 383315643#1 383315643#2 383315643#3 208428860 208428859#0 208428859#1 137899131#0 137899131#1 137899131#2 564116393#0 564116393#1 103306925#0 103306925#1 208428858 208428861#0 208428861#1 208428861#2 208428861#3 208428861#4 208428861#5 383315645#0 383315645#1 383315645#2"/>
    </vehicle>
    <vehicle depart="124.00" id="124">
        <route edges="437519684#0 437519684#1 437519684#2 437519469#0 437519469#1 437519469#2 540512682#0 540512682#1 154766486#0 154766486#1 154766486#2 154766486#3 154766486#4 437519685#0 437519685#1 540512681 437519468#0 437519468#1 437519468#2 383315643#0 383315643#1 383315643#2 383315643#3 208428860 208428859#0 208428859#1 137899131#0 103067386#0 103067386#1 232224166#0 232224166#1 232224166#2 232224166#3 103027505#0 103027505#1 103027505#2 103027505#3 103027505#4 103964838#7 103964838#0 103964838#1 103964838#2 103964838#3 103964838#4 103964838#5 103027507#0 103027507#1"/>
    </vehicle>
    <vehicle depart="125.00" id="125">
        <route edges="103969810#1 103969810#2 103969814#1 103969814#2 103027507#3 103027507#4 103027507#5 103067389#0 103067389#1 232224165 137899131#2 564116393#0 564116393#1 103306925#0 103306925#1 208428858 208428861#0 208428861#1 208428861#2 208428861#3 208428861#4 208428861#5 383315645#0 383315645#1 383315645#2 564116378#1 437519466 540714687 165554898#0 165554898#1 1024923882#0 1024923882#1 1024923882#2 437519684#0 437519684#1 437519684#2 437519469#0 437519469#1 437519469#2 -1033859678#1 -1033859678#0 -22699885 -22699876#8 -22699876#7 -22699876#6"/>
    </vehicle>
    <vehicle depart="127.23" id="10" departLane="best" departSpeed="max">
        <route edges="22699980#0 -188839136#1 -188839136#0 -188839137 188839135 -461396941 461396939#0 461396939#1"/>
    </vehicle>
    <vehicle depart="134.11" id="88" departLane="best" departSpeed="max">
        <route edges="58801797#1 58801797#2 103964838#3 103964838#4 103964838#5 103027507#0 103027507#1 103027507#2 103027507#3 103027507#4 103027507#5 103067389#0 103067389#1 232224165 137899131#2 564116393#0 564116393#1 103306925#0 103306925#1 208428858 208428861#0 208428861#1 208428861#2 208428861#3 208428861#4 208428861#5 383315645#0 383315645#1 383315645#2 564116378#1 437519466 540714687 165554898#0 165554898#1 1024923882#0 1024923882#1 1024923882#2 437519684#0 437519684#1 437519684#2 437519469#0 437519469#1 437519469#2 -1033859678#1 -1033859678#0 -22699885 -22699876#8 -22699876#7 -22699876#6"/>
    </vehicle>
    <vehicle depart="136.00" id="136">
        <route edges="437518124#1 304278507#0 304278507#1 304278507#2 304278507#3 304278506#1 304278870 437518129#6 437518129#7 437518129#0 437518129#1 437518129#2 406908595#0 406908595#1 437982469 22699949 463044911 437519470 22699953 188839137 188839136#0 188839136#1 22699980#1 22818681#0"/>
    </vehicle>
    <vehicle depart="147.00" id="147">
        <route edges="58801798#9 103964843#2 95720635#0 95720635#1 95720635#2 103965296#5 -1244072109#8 -1244072109#7 -1244072109#6 -1244072109#5"/>
    </vehicle>
    <vehicle depart="147.85" id="18" departLane="best" departSpeed="max">
        <route edges="173593856#4 173593856#5 173593856#6 173593856#7 173593856#8 173593856#9 103966571#1 1232198389 564116392#0 103966574#0 103966574#1 564116393#1 103306925#0 103306925#1 208428858 208428861#0 208428861#1 208428861#2 208428861#3 208428861#4 208428861#5 383315645#0"/>
    </vehicle>
    <vehicle depart="148.02" id="3" departLane="best" departSpeed="max">
        <route edges="-154766475#1 -154766475#0 540512678 154766483#0 154766483#1 1018466676 154766476#0 154766476#1 154766476#2 540714689 154766496#0 154766496#1 154766496#2 564116377 383315646#0 383315646#1 383315646#2 383315646#3 383315646#4 540714687 540714686 540512681 564116378#0 564116378#1 437519467#0 437519467#1 437519467#2 437519467#3 437519467#4 437519467#5 -154766478#2 -154766478#1 -154766478#0"/>
    </vehicle>
    <vehicle depart="151.29" id="66" departLane="best" departSpeed="max">
        <route edges="173593856#4 173593856#5 173593845#3 97733802#4"/>
    </vehicle>
    <vehicle depart="153.00" id="153">
        <route edges="103966570#1 97733802#0 97733802#1 97733802#2 97733802#3 97733802#4 97733802#5"/>
    </vehicle>
    <vehicle depart="155.35" id="85" departLane="best" departSpeed="max">
        <route edges="173593856#4 173593856#5 173593856#6 173593856#7 173593856#8 173593856#9 103966571#1 1232198389 564116392#0 103966574#0 103966574#1 564116393#1 564116393#2 137899131#0 103067386#0 103067386#1 232224166#0 232224166#1 232224166#2 232224166#3"/>
    </vehicle>
    <vehicle depart="159.00" id="159">
        <route edges="-448728203#5 -448728203#4 -448728203#3 -448728203#2 -448728203#1 -448728203#0 -104785011#2 -104785011#1 -104785011#0 -178128362#1 -178128362#0 178128361 441661952 232224166#0 103968656 232224167#0 232224167#1 232224167#2 232224167#3 232224167#4 232224167#5 103965296#3 103965296#4 103965296#5 -1244072109#8 -1244072109#7 -1244072109#6 -1244072109#5 34888158#0 34888158#1 97733802#5"/>
    </vehicle>
    <vehicle depart="159.72" id="61" departLane="best" departSpeed="max">
        <route edges="22699876#6 22699876#7 22699876#8 22699885 1033859678#0 1033859678#1 540512682#0 540512682#1 540714685 437519469#0 374962806#0 374962806#1 374962806#2 374962806#3 374962806#4 437518125#1 437518127#5 437518127#0 374962805#0 374962805#1 437982466 463044911 437519470 22699953"/>
    </vehicle>
    <vehicle depart="159.72" id="121" departLane="best" departSpeed="max">
        <route edges="22699876#6 22699876#7 22699876#8 22699885 1033859678#0 1033859678#1 540512682#0 540512682#1 154766486#0 154766486#1 154766486#2 154766486#3 154766486#4 437519685#0 437519685#1 540512681 564116378#0 564116378#1 437519467#0 437519467#1 437519467#2 437519467#3 437519467#4 437519467#5 383315644#0 383315644#1 383315644#2 383315644#3 383315644#4 540512680#0 540512680#1 564116390 154766492#0 154766492#1 154766492#2 540512679#0 540512679#1 232119940 154766475#0 154766475#1"/>
    </vehicle>
    <vehicle depart="172.00" id="172">
        <route edges="110058633#1 110058633#2 103964843#4 103964843#5 103964843#0 103964843#1 103964843#2 95720635#0 95720635#1 95720635#2 103965296#5 -1244072109#8 -1244072109#7 -1244072109#6 -1244072109#5 34888158#0 34888158#1 97733802#5"/>
    </vehicle>
    <vehicle depart="174.87" id="48" departLane="best" departSpeed="max">
        <route edges="22699980#0 -188839136#1 -188839136#0 -188839137 -22699953 -437519470 -463044911 -22699949 -463044912 22699926"/>
    </vehicle>
    <vehicle depart="188.00" id="188">
        <route edges="437518125#1 437518127#5 437518127#0 437518127#1 437518127#2 437518127#3 437518127#4 -437518125#1 -437518125#0 304278509#2 304278509#3 304278509#4 437519469#2 540512682#0 540512682#1 154766486#0 154766486#1 154766486#2 154766486#3 154766486#4 437519685#0 437519685#1 540512681 437519468#0 437519468#1 437519468#2 383315643#0 383315643#1 383315643#2 383315643#3 208428860 208428859#0 208428859#1 137899131#0 103067386#0 103067386#1 232224166#0 103968656 232224167#0 232224167#1 232224167#2 232224167#3 232224167#4 232224167#5 103965296#3 110058633#0 110058633#1"/>
    </vehicle>
    <vehicle depart="189.34" id="51" departLane="best" departSpeed="max">
        <route edges="22699980#0 22699980#1 22818681#0"/>
    </vehicle>
    <vehicle depart="196.00" id="196">
        <route edges="103027509#2 103964838#1 110058643#0 110058643#1"/>
    </vehicle>
    <vehicle depart="200.00" id="200">
        <route edges="154766498#4 154766498#5 34898121#5 34898121#6 34898121#7 103967427#1 1232198390 564116391 22818685#0 22818685#1 1232986978#0 1232986978#1 1232986978#2 1113306549#0 1113306549#1 1113306549#2 1113306549#3"/>
    </vehicle>
    <vehicle depart="200.59" id="139" departLane="best" departSpeed="max">
        <route edges="34888155#2 34888155#3"/>
    </vehicle>
    <vehicle depart="204.17" id="203" departLane="best" departSpeed="max">
        <route edges="-154766475#1 -154766475#0 540512678 154766483#0 154766483#1 1018466676 154766476#0 154766476#1 154766476#2 540714689 154766496#0 154766496#1 154766496#2 564116377 383315646#0 383315646#1 383315646#2 383315646#3 383315646#4 540714687 165554898#0 165554898#1 1024923882#0 1024923882#1 1024923882#2 437519684#0 437519684#1 437519684#2 437519469#0 437519469#1 437519469#2 -1033859678#1 -1033859678#0 -22699885 -22699876#8 -22699876#7 -22699876#6"/>
    </vehicle>
    <vehicle depart="206.00" id="206">
        <route edges="437519685#0 437519685#1 540512681 564116378#0 564116378#1 437519467#0 437519467#1 437519467#2 437519467#3 437519467#4 437519467#5 383315644#0 383315644#1 383315644#2 383315644#3 383315644#4 540512680#0 540512680#1 564116390 154766492#0 154766492#1 154766492#2 540512679#0 540512679#1 540714691 154766483#0 154766483#1"/>
    </vehicle>
    <vehicle depart="210.71" id="162" departLane="best" departSpeed="max">
        <route edges="22699980#0 -188839136#1 -188839136#0 -188839137 -22699953 -437519470 -463044911 374962804 437982468#1 437518129#4 437518129#5 437518129#6 374962807 437518124#1 304278507#0 576811566"/>
    </vehicle>
    <vehicle depart="211.59" id="190" departLane="best" departSpeed="max">
        <route edges="173593856#4 173593856#5 173593856#6 173593856#7 173593856#8 173593856#9 103966571#1 1232198389 564116392#0 564116392#1 1232198388 110058622#0 110058622#1 103965296#2 103965296#3 110058633#0 110058633#1 110058633#2 103964843#4 103964843#5 110058640#0 110058640#1 110058640#2 103964838#5 103027507#0 103027507#1 103027507#2"/>
    </vehicle>
    <vehicle depart="214.20" id="185" departLane="best" departSpeed="max">
        <route edges="1018466676 540714690 540512679#0 540512679#1 232119940 154766475#0 154766475#1"/>
    </vehicle>
    <vehicle depart="214.31" id="182" departLane="best" departSpeed="max">
        <route edges="58801797#1 58801797#2 103964838#3 103964838#4 103964838#5 103027507#0 103027507#1 103027507#2 103027507#3 103027507#4 103027507#5 103067389#0 103067389#1 232224165 137899131#2 564116393#0 564116393#1 103306925#0 103306925#1 208428858 208428861#0 208428861#1 208428861#2 208428861#3 208428861#4 208428861#5 383315645#0 383315645#1 383315645#2 564116378#1 437519466 540714687 165554898#0 165554898#1 1024923882#0 1024923882#1 1024923882#2 437519684#0 437519684#1 437519684#2 437519469#0 437519469#1 437519469#2 -1033859678#1 -1033859678#0 -22699885 -22699876#8 -22699876#7 -22699876#6"/>
    </vehicle>
    <vehicle depart="219.00" id="219">
        <route edges="180601446#0 180601446#1 19918162 863075715 304277522 304277515 304277520 463044912 22699949 463044911 437519470 22699953 188839137 188839136#0 188839136#1 22699980#1"/>
    </vehicle>
    <vehicle depart="220.00" id="220">
        <route edges="437518131#2 437518127#4 437518127#5 437518127#0 374962805#0 374962805#1 437982466 463044911 437519470 22699953 188839137 188839136#0 188839136#1 22699980#1"/>
    </vehicle>
    <vehicle depart="221.00" id="221">
        <route edges="304278509#2 304278509#3 304278509#4 437519469#2 540512682#0 540512682#1 154766486#0 154766486#1 154766486#2 154766486#3 154766486#4 437519685#0 437519685#1 540512681 564116378#0 564116378#1 437519467#0 437519467#1 437519467#2 437519467#3 437519467#4 437519467#5 383315644#0 383315644#1 383315644#2 383315644#3 383315644#4 540512680#0 540512680#1 564116390 154766492#0 154766492#1 154766492#2 540512679#0 540512679#1 232119940 154766475#0 154766475#1"/>
    </vehicle>
    <vehicle depart="231.21" id="56" departLane="best" departSpeed="max">
        <route edges="-154766475#1 -154766475#0 540512678 154766483#0 154766483#1 1018466676 154766476#0 154766476#1 154766476#2 540714689 154766496#0 154766496#1 154766496#2 564116377 383315646#0 383315646#1 383315646#2 383315646#3 383315646#4 540714687 165554898#0 165554898#1 1024923882#0 1024923882#1 1024923882#2 437519684#0 437519684#1 437519684#2 437519469#0 437519469#1 437519469#2 -1033859678#1 -1033859678#0 -22699885 -22699876#8 -22699876#7 -22699876#6"/>
    </vehicle>
    <vehicle depart="233.40" id="223" departLane="best" departSpeed="max">
        <route edges="-154766475#1 -154766475#0 540512678 154766483#0 154766483#1 1018466676 154766476#0 154766476#1 154766476#2 540714689 154766496#0 154766496#1 154766496#2 564116377 383315646#0 383315646#1 383315646#2 383315646#3 383315646#4 540714687 540714686 540512681 437519468#0 437519468#1 437519468#2 383315643#0 383315643#1 383315643#2 383315643#3 208428860 208428859#0 208428859#1 137899131#0 137899131#1 137899131#2 564116393#0 564116393#1 103306925#0 103306925#1 208428858 208428861#0 208428861#1 208428861#2 208428861#3 208428861#4 208428861#5"/>
    </vehicle>
    <vehicle depart="235.59" id="94" departLane="best" departSpeed="max">
        <route edges="1244072109#5 1244072109#6 173593842#0"/>
    </vehicle>
    <vehicle depart="243.10" id="187" departLane="best" departSpeed="max">
        <route edges="58801797#1 58801797#2 103964838#3 103964838#4 103964838#5 103027507#0 103027507#1 103027507#2 103027507#3 103027507#4 103027507#5 103067389#0 103067389#1 232224165 137899131#2 564116393#0 564116393#1 103306925#0 103306925#1 208428858 208428861#0 208428861#1 208428861#2 208428861#3 208428861#4 208428861#5 383315645#0 383315645#1 383315645#2 564116378#1 437519466 540714687 165554898#0 165554898#1 1024923882#0 1024923882#1 1024923882#2 437519684#0 437519684#1 437519684#2 437519469#0 437519469#1 437519469#2 -1033859678#1 -1033859678#0 -22699885 -22699876#8 -22699876#7 -22699876#6"/>
    </vehicle>
    <vehicle depart="247.29" id="246" departLane="best" departSpeed="max">
        <route edges="154766484#1 154766483#1 1018466676 540714690 540512679#0 540512679#1 232119940 154766475#0 154766475#1"/>
    </vehicle>
    <vehicle depart="250.00" id="250">
        <route edges="383315646#3 383315646#4 540714687 540714686 540512681 564116378#0 564116378#1 437519467#0 437519467#1 437519467#2 437519467#3 437519467#4 437519467#5 383315644#0 383315644#1 383315644#2 383315644#3 383315644#4 540512680#0 540512680#1 564116390 154766492#0 154766492#1 154766492#2 540512679#0 540512679#1 232119940 154766475#0 154766475#1"/>
    </vehicle>
    <vehicle depart="256.00" id="256">
        <route edges="665553810#0 665553810#1 665553810#2 450024305#5 450024305#0 450024305#1 450024305#2 923125221#0 923125221#1 923125221#2 437518130#2 304278506#3 304278506#4 304278506#5 304278506#0 304278506#1 304278870 437518129#6 437518129#7 437518129#0 437518129#1 437518129#2 406908595#0 406908595#1 437982469 22699949 463044911 437519470 22699953 188839137 188839136#0 188839136#1 22699980#1"/>
    </vehicle>
    <vehicle depart="256.84" id="157" departLane="best" departSpeed="max">
        <route edges="22699876#6 22699876#7 22699876#8 22699885 1033859678#0 1033859678#1 540512682#0 540512682#1 154766486#0 154766486#1 154766486#2 154766486#3 154766486#4 437519685#0 437519685#1 540512681 564116378#0 564116378#1 437519467#0 437519467#1 437519467#2 437519467#3 437519467#4 437519467#5 383315644#0 383315644#1 383315644#2 383315644#3 383315644#4 540512680#0 540512680#1 564116390 154766492#0 154766492#1 154766492#2 540512679#0 540512679#1 540714691 154766483#0 154766483#1"/>
    </vehicle>
    <vehicle depart="264.00" id="264">
        <route edges="-104785011#1 -104785011#0 -178128362#1 -178128362#0 178128361 441661952 232224166#0 232224166#1 232224166#2 232224166#3 103027505#0 103027505#1 103027505#2 103027505#3 103027505#4 103964838#7 103964838#0 103964838#1 110058643#0 110058643#1"/>
    </vehicle>
    <vehicle depart="272.00" id="272">
        <route edges="103967428#1 564116391 22818685#0 22818685#1 1232986978#0 1232986978#1 1232986978#2 1113306549#0 1113306549#1 1113306549#2 1113306549#3"/>
    </vehicle>
    <vehicle depart="272.70" id="241" departLane="best" departSpeed="max">
        <route edges="-154766475#1 -154766475#0 540512678 154766483#0 154766483#1 1018466676 154766476#0 154766476#1 154766476#2 540714689 154766496#0 154766496#1 154766496#2 564116377 383315646#0 383315646#1 383315646#2 383315646#3 383315646#4 540714687 165554898#0 165554898#1 1024923882#0 1024923882#1 1024923882#2 437519684#0 437519684#1 437519684#2 437519469#0 437519469#1 437519469#2 -1033859678#1 -1033859678#0 -22699885 -22699876#8 -22699876#7 -22699876#6"/>
    </vehicle>
    <vehicle depart="278.00" id="278">
        <route edges="-22699953 -437519470 -463044911 -22699949 436785243 437982467#0 437982467#1 437518127#2 437518127#3 437518127#4 437518127#5 437518127#0 374962805#0 374962805#1 437982466 463044911 437519470 22699953 188839137 188839136#0 188839136#1 22699980#1"/>
    </vehicle>
    <vehicle depart="278.29" id="158" departLane="best" departSpeed="max">
        <route edges="22699876#6 22699876#7 22699876#8 22699885 1033859678#0 1033859678#1 540512682#0 540512682#1 154766486#0 154766486#1 154766486#2 154766486#3 154766486#4 437519685#0 437519685#1 540512681 564116378#0 564116378#1 437519467#0 437519467#1 437519467#2 437519467#3 437519467#4 437519467#5 -154766478#2 -154766478#1 -154766478#0 383315646#0 383315646#1 383315646#2 383315646#3"/>
    </vehicle>
    <vehicle depart="279.05" id="28" departLane="best" departSpeed="max">
        <route edges="22699876#6 22699876#7 22699876#8 22699885 1033859678#0 1033859678#1 540512682#0 540512682#1 154766486#0 154766486#1 154766486#2 154766486#3 154766486#4 437519685#0 437519685#1 540512681 564116378#0 564116378#1 437519467#0 437519467#1 437519467#2 437519467#3 437519467#4 437519467#5 383315644#0 383315644#1 154766473#0 154766473#1 154766473#2 154766496#2 564116377"/>
    </vehicle>
    <vehicle depart="279.16" id="25" departLane="best" departSpeed="max">
        <route edges="22699876#6 22699876#7 22699876#8 22699885 1033859678#0 1033859678#1 540512682#0 540512682#1 154766486#0 154766486#1 154766486#2 154766486#3 154766486#4 437519685#0 437519685#1 540512681 564116378#0 564116378#1 437519467#0 437519467#1 437519467#2 437519467#3 437519467#4 437519467#5 383315644#0 383315644#1 383315644#2 383315644#3 383315644#4 540512680#0 540512680#1 564116390 154766492#0 154766492#1 154766492#2 540512679#0 540512679#1 232119940 154766475#0 154766475#1"/>
    </vehicle>
    <vehicle depart="283.82" id="179" departLane="best" departSpeed="max">
        <route edges="-154766475#1 -154766475#0 540512678 154766483#0 154766483#1 1018466676 540714690 540512679#0 540512679#1 232119940 154766475#0"/>
    </vehicle>
    <vehicle depart="286.97" id="92" departLane="best" departSpeed="max">
        <route edges="22699876#6 22699876#7 22699876#8 22699885 1033859678#0 1033859678#1 540512682#0 540512682#1 154766486#0 154766486#1 154766486#2 154766486#3 154766486#4 437519685#0 437519685#1 540512681 437519468#0 437519468#1 437519468#2 383315643#0 383315643#1 383315643#2 383315643#3 208428860 208428859#0 208428859#1 137899131#0 103067386#0 103067386#1 232224166#0 232224166#1 232224166#2 232224166#3 103027505#0 103027505#1 103027505#2 103027505#3 103027505#4 103964838#7 103964838#0 103964838#1 110058643#0 110058643#1"/>
    </vehicle>
    <vehicle depart="288.00" id="288">
        <route edges="22818681#0"/>
    </vehicle>
    <vehicle depart="288.44" id="175" departLane="best" departSpeed="max">
        <route edges="22699980#0 -188839136#1 -188839136#0 -188839137 188839135 188839641 22818657#1 22818657#2"/>
    </vehicle>
    <vehicle depart="289.00" id="289">
        <route edges="154766478#2 383315644#0 383315644#1 383315644#2 383315644#3 383315644#4 540512680#0 540512680#1 564116390 154766492#0 154766492#1 154766492#2 540512679#0 540512679#1 232119940 154766475#0 154766475#1"/>
    </vehicle>
    <vehicle depart="292.60" id="231" departLane="best" departSpeed="max">
        <route edges="173593856#4 173593856#5 173593856#6 173593856#7 173593856#8 173593856#9 103966571#1 1232198389 564116392#0 103966574#0 103966574#1 564116393#1 564116393#2 137899131#0 103067386#0 103067386#1 232224166#0 232224166#1 103969810#0 103969810#1 103969812#2"/>
    </vehicle>
    <vehicle depart="293.03" id="135" departLane="best" departSpeed="max">
        <route edges="58801797#1 58801797#2 103964838#3 103964838#4 103964838#5 103027507#0"/>
    </vehicle>
    <vehicle depart="295.64" id="152" departLane="best" departSpeed="max">
        <route edges="22699980#0 -188839136#1 -188839136#0 -188839137 188839135 -461396941 -22818654#3"/>
    </vehicle>
    <vehicle depart="295.88" id="112" departLane="best" departSpeed="max">
        <route edges="22699876#6 22699876#7 22699876#8 22699885 1033859678#0 1033859678#1 540512682#0 540512682#1 154766486#0 154766486#1 154766486#2 154766486#3 154766486#4 437519685#0 437519685#1 540512681 437519468#0 437519468#1 437519468#2 383315643#0 383315643#1 383315643#2 383315643#3 208428860 208428859#0 208428859#1 137899131#0 103067386#0 103067386#1 232224166#0 103968656 232224167#0 232224167#1 232224167#2 232224167#3 232224167#4 232224167#5 103965296#3 103965296#4 103965296#5 -1244072109#8 -1244072109#7 -1244072109#6 -1244072109#5"/>
    </vehicle>
    <vehicle depart="296.99" id="251" departLane="best" departSpeed="max">
        <route edges="-154766475#1 -154766475#0 540512678 154766483#0 154766483#1 1018466676 154766476#0 154766476#1 154766476#2 540714689 154766496#0 154766496#1 154766496#2 564116377 383315646#0 383315646#1 383315646#2 383315646#3 383315646#4 540714687 165554898#0 165554898#1 1024923882#0 1024923882#1 1024923882#2 406908592#0 406908592#1 406908592#2 406908592#3 406908592#4 406908592#5 406908592#6 665553811#0 665553811#1 665553811#2 665553810#0 665553810#1 665553810#2 450024305#5 450024305#0 455337153#0 455337153#1 19803760 1238473344 229799355#0 229799354"/>
    </vehicle>
    <vehicle depart="298.00" id="298">
        <route edges="463044911 437519470 22699953 188839137 188839136#0 188839136#1 22699980#1 22818681#0"/>
    </vehicle>
    <vehicle depart="299.16" id="209" departLane="best" departSpeed="max">
        <route edges="-154766475#1 -154766475#0 540512678 154766483#0 154766483#1 1018466676 154766476#0 154766476#1 154766476#2 540714689 154766496#0 154766496#1 154766496#2 564116377 383315646#0 383315646#1 383315646#2 383315646#3 383315646#4 540714687 165554898#0 165554898#1 1024923882#0 1024923882#1 1024923882#2 437519684#0 437519684#1 437519684#2 437519469#0 437519469#1 437519469#2 -1033859678#1 -1033859678#0 -22699885 -22699876#8 -22699876#7 -22699876#6"/>
    </vehicle>
    <vehicle depart="299.42" id="207" departLane="best" departSpeed="max">