<?xml version="1.0" encoding="UTF-8"?>

<!-- generated on 2024-12-03 16:55:28.079650 by cutRoutes.py UNKNOWN
  options: partition_0.net.xml viladecans.rou.xml <doubleminus>routes-output partition_0.rou.xml <doubleminus>orig-net viladecans.net.xml
-->

<routes xmlns:xsi="http://www.w3.org/2001/XMLSchema-instance" xsi:noNamespaceSchemaLocation="http://sumo.dlr.de/xsd/routes_file.xsd">
    <vehicle depart="3.00" id="3">
        <route edges="96617277#1 96617277#2 96614421#1 96616040#0 96616040#1 539700922#0 96617272#0 96617272#1 96617273 -204331653#4 96617275#0 97680600#0 97680600#1 97678824#0 97678824#1 97678824#2 97678824#3 97678824#4 97678824#5 97678824#6 97678824#7 -97675054#8 -97675054#7 97772830#2 97772830#3 97772828#1 1029856084#3 539700920#0 539700920#1 539700920#2 539700920#3 20026755 540513236 -540714693#3 -540714693#2 -540714693#1 -540714693#0 540714692#0 540714692#1 540714692#2"/>
    </vehicle>
    <vehicle depart="6.00" id="6">
        <route edges="-1115991586#1 -1115991586#0 -1228972046 -1228972039 -1115991584#4"/>
    </vehicle>
    <vehicle depart="12.00" id="12">
        <route edges="97772830#2 133865632 41601834#4 97675054#8 97675054#9 98021460#2 98021460#3 98021460#4 95277282#4"/>
    </vehicle>
    <vehicle depart="17.00" id="17">
        <route edges="1216917020#1 1216917020#2 1216917020#3 426723134#0 426723134#1 426723134#2 426723134#3 95720648#0 95720648#1 95720648#2 95720645#2 95720645#3 95720645#4 95720645#5 95720645#0 95720651#0 95720651#1 95720651#2 95720651#3 95720651#4 539667094#2 539667094#3 539861455 164715306 173593849 1244072109#0 1244072109#1 34888154#0 34888154#1 34888154#2 34888154#3 34888154#4 540714692#0 540714692#1 540714692#2 -22699877#5 -22699877#4 -22699877#3 -22699877#2 -22699877#1 -22699877#0 -1228972046 -1228972039 -1115991584#4"/>
    </vehicle>
    <vehicle depart="19.00" id="19">
        <route edges="95277283#8 97678824#5 97678824#6 97678824#7 97675054#9 98021460#2 98021460#3 98021460#4 95277282#4"/>
    </vehicle>
    <vehicle depart="20.37" id="11" departLane="best" departSpeed="max">
        <route edges="1115991584#4 1228972039 1228972046 22699877#0 22699877#1 22699877#2 22699877#3 22699877#4 22699877#5"/>
    </vehicle>
    <vehicle depart="36.00" id="36">
        <route edges="95720654#3 58801798#0 58801798#1 58801798#2 58801798#3"/>
    </vehicle>
    <vehicle depart="51.00" id="51">
        <route edges="438132550 97100391#2 97100391#3 96616032#2 539667087 96616028 539667086#0 539667086#1"/>
    </vehicle>
    <vehicle depart="55.00" id="55">
        <route edges="95720654#2 95720654#3 58801798#0 58801798#1 58801798#2 208416869#0 208416869#1 208416869#2 -1244072109#3 -1244072109#2 34888154#0 34888154#1 34888154#2 34888154#3 34888154#4 540714692#0 540714692#1 540714692#2 -22699877#5 -22699877#4 -22699877#3 -22699877#2 -22699877#1 -22699877#0 -1228972046 -1228972039 -1115991584#4"/>
    </vehicle>
    <vehicle depart="56.00" id="56">
        <route edges="208418746#1 208418746#2 208418745 97106116#0 97106116#1 97106116#2 97106116#3 97106116#4 97106112#0 97106112#1 97106112#2 97106112#3 97106119#0 97106119#1 97106119#2 97106119#3 97106119#4 97106119#5 208418744 208418743#0 208418743#1 96616031#2 564116389 539667088 539700921 -204331653#5 -204331653#4 96617275#0 97680600#0 97680600#1 97678824#0 97678824#1 97678824#2 97678824#3 97678824#4 97678824#5 97678824#6 97678824#7 -97675054#8 -97675054#7 97772830#2 97772830#3 97772828#1 1029856084#3 539700920#0 539700920#1 539700920#2 539700920#3 20026755 540513236 -540714693#3 -540714693#2 -540714693#1 -540714693#0 540714692#0 540714692#1 540714692#2"/>
    </vehicle>
    <vehicle depart="57.00" id="57">
        <route edges="97535998#5 1244072109#0 1244072109#1 34888154#0 34888154#1 34888154#2 34888154#3 34888154#4 540714692#0 540714692#1 540714692#2 -22699877#5 -22699877#4 -22699877#3 -22699877#2 -22699877#1 -22699877#0 -1228972046 -1228972039 -1115991584#4"/>
    </vehicle>
    <vehicle depart="63.00" id="63">
        <route edges="-104028539 98021462#0 104028541 41601834#1 41601834#2 41601834#3 41601834#4 97675054#8 97675054#9 98021460#2 98021460#3 98021460#4 98021460#5 98021460#6 94252639#6 94252639#7 97678823#0 97678823#1"/>
    </vehicle>
    <vehicle depart="65.03" id="14" departLane="best" departSpeed="max">
        <route edges="1115991584#4 1228972039 1228972046 1115991586#0 1115991586#1 1115991586#2 540512677 539700918#0 539700918#1 539700918#2 539700918#3 539700918#4 539700918#5 539700918#6 540513236 -540714693#3 -540714693#2 -540714693#1 -540714693#0"/>
    </vehicle>
    <vehicle depart="71.74" id="35" departLane="best" departSpeed="max">
        <route edges="1115991584#4 1228972039 1228972046 1115991586#0 1115991586#1 1115991586#2 540512677 539700918#0 539700918#1 539700918#2 539700918#3 41601834#0 41601834#1 41601834#2 97772828#0 97772828#1 97772828#2 97772828#3 97772828#4 97733793#0 97733793#1 97733793#2 97733793#3"/>
    </vehicle>
    <vehicle depart="86.00" id="86">
        <route edges="20026984#2 -20026878#3 -20026878#2 -20026878#1 -20026878#0 -1192906928#4 -1192906928#3 -1192906928#2 -1192906928#1 -1192906928#0 -1192906929#2 -1192906929#1 -1192906929#0 539667090 567578091 20026755 -539700918#6 -539700918#5 -539700918#4 41601834#0 41601834#1 41601834#2 41601834#3 41601834#4 97675054#8 97675054#9 98021460#2 98021460#3 98021460#4 98021460#5 98021460#6 98021460#7 95277286#3 102848201#0 102848201#1 102848200#4 102848200#0 96617277#0 96617277#1 96617277#2 96614421#1 96616040#0 96616040#1 539700922#0 539700922#1 96616033 539700921 96616031#0 96616031#1 96616031#2 909783275#0 909783275#1 909783275#2 909783275#3 909783275#4 909783275#5"/>
    </vehicle>
    <vehicle depart="88.00" id="88">
        <route edges="-20027007#2 -20027007#1 -20027007#0 295047602 1086991032#0 1086991032#1 1116005597#0 1116005597#1 1116005597#2 1116005596 1195588783#0 1195588783#1 1195588783#2 1195588783#3 1195588783#4 295047601#0 58801805#0 58801805#1 1104609141#1 1104609141#2"/>
    </vehicle>
    <vehicle depart="92.05" id="78" departLane="best" departSpeed="max">
        <route edges="540714692#0 540714692#1 540714692#2"/>
    </vehicle>
    <vehicle depart="92.18" id="13" departLane="best" departSpeed="max">
        <route edges="-22699877#5 -22699877#4 -22699877#3 -22699877#2 -22699877#1 -22699877#0 1115991586#0 1115991586#1 1115991586#2 540512677 539700918#0 539700918#1 539700918#2 539700918#3 41601834#0 41601834#1 41601834#2 97772828#0 97772828#1 97772828#2 97772828#3 97772828#4 97733793#0 97733793#1 97733793#2 97733793#3 97733793#4 95720651#0 95720651#1 95720651#2 95720651#3 95720651#4 539667094#2 539667094#3 20026984#0 20026984#1 20026984#2 -20026878#3 -20026878#2 -20026878#1 -20026878#0"/>
    </vehicle>
    <vehicle depart="93.00" id="93">
        <route edges="95277283#8 97678824#5 97678824#6 97678824#7 97675054#9 98021460#2 98021460#3 98021460#4 95277282#4"/>
    </vehicle>
    <vehicle depart="101.63" id="29" departLane="best" departSpeed="max">
        <route edges="104031268#1 98021460#1 -97675054#9 -97675054#8 -97675054#7 97772830#2 97772830#3 97772828#1 97772828#2 97772828#3 97772828#4 97733793#0 97733793#1 97733793#2 97733793#3 97733793#4 95720651#0 95720651#1 95720651#2 95720651#3 95720651#4 539667094#2 539667094#3 539861455 164715306 1244072110 1222056733 95720654#0 95720654#1 95720654#2 95720654#3 97479791#0 97479791#1 97479791#2 1195588783#0"/>
    </vehicle>
    <vehicle depart="102.00" id="102">
        <route edges="204331652#0 204331652#1 95720651#1 95720651#2 95720651#3 95720651#4 539667094#2 539667094#3 20026984#0 20026984#1 20026984#2 -20026878#3 -20026878#2 -20026878#1 -20026878#0 -1192906928#4 -1192906928#3 -1192906928#2 -1192906928#1 -1192906928#0 -1192906929#2 -1192906929#1 -1192906929#0 539667090 567578091 20026755 -539700918#6 -539700918#5 -539700918#4 41601834#0 41601834#1 41601834#2 41601834#3 41601834#4 -97675054#7 -97675054#6 -97675054#5 -97675054#4 -97675054#3 -97675054#2 -97675054#1 -97675054#0"/>
    </vehicle>
    <vehicle depart="104.00" id="104">
        <route edges="1216917020#2 1216917020#3 426723134#0 426723134#1 426723134#2 426723134#3 95720648#0 95720648#1 95720648#2 95720645#2 95720645#3 95720645#4 154766469#0 154766469#1 97733798#0 97733798#1 97733798#2 97733798#3 97675053#4 97675053#5 97675053#6 97675053#7 97675054#0 97675054#1 97675054#2 97675054#3 97675054#4 97675054#5 97675054#6 97675054#7 97675054#8 97675054#9 98021460#2 98021460#3 98021460#4 98021460#5 95265027#3"/>
    </vehicle>
    <vehicle depart="107.00" id="107">
        <route edges="97772830#2 133865632 41601834#4 97675054#8 97675054#9 98021460#2 98021460#3 98021460#4 98021460#5 95265027#3"/>
    </vehicle>
    <vehicle depart="110.85" id="54" departLane="best" departSpeed="max">
        <route edges="-1244072109#3 -1244072109#2 -1244072109#1 -1244072109#0 -173593849 1244072110 539861454 1116048794 539667094#0 539667094#1 539667094#2 1222056731 97733819#0 97733819#1 97733819#2 97733819#3"/>
    </vehicle>
    <vehicle depart="115.40" id="73" departLane="best" departSpeed="max">
        <route edges="540714692#0 540714692#1 540714692#2 -22699877#5 -22699877#4 -22699877#3 -22699877#2 -22699877#1 -22699877#0 -1228972046 -1228972039 -1115991584#4"/>
    </vehicle>
    <vehicle depart="118.00" id="118">
        <route edges="96617273 -204331653#4 96617275#0 97680600#0 97680600#1 97678824#0 97678824#1 97678824#2 97678824#3 95277282#3 95277282#4"/>
    </vehicle>
    <vehicle depart="128.85" id="46" departLane="best" departSpeed="max">
        <route edges="95277283#7 95277283#8 95277283#9 133857742"/>
    </vehicle>
    <vehicle depart="131.32" id="59" departLane="best" departSpeed="max">
        <route edges="540714693#0 540714693#1 540714693#2 540714693#3 539667091 539667090 567578091 20026755 -539700918#6 -539700918#5 -539700918#4 41601834#0 41601834#1 41601834#2 41601834#3 41601834#4 97675054#8 97675054#9 98021460#2 98021460#3 98021460#4 98021460#5 98021460#6 98021460#7 95277286#3 102848201#0 102848201#1 102848200#4 102848200#0 96617277#0 96617277#1 96617277#2 96614421#1 96616040#0 96616040#1 539700922#0 539700922#1 96616033 539700921 96616031#0 96616031#1 96616031#2 564116389 96616032#0 -438132553#2 -438132553#1 -438132553#0 -438132551#1 -438132551#0 96617609#1 96617609#2 -438132551#2"/>
    </vehicle>
    <vehicle depart="133.00" id="133">
        <route edges="366567526#0 366567526#1 366567526#2 -1192906928#1 -1192906928#0 -1192906929#2 -1192906929#1 -1192906929#0 539667090 567578091 20026755 -539700918#6 -539700918#5 -539700918#4 41601834#0 41601834#1 41601834#2 41601834#3 41601834#4 97675054#8 97675054#9 98021460#2 98021460#3 98021460#4 98021460#5 95265027#3"/>
    </vehicle>
    <vehicle depart="134.00" id="134">
        <route edges="422633438#1 422633438#2 -22699877#3 -22699877#2 -22699877#1 -22699877#0 -1228972046 -1228972039 -1115991584#4"/>
    </vehicle>
    <vehicle depart="142.00" id="142">
        <route edges="204331653#5 96616031#0 208418746#0 208418746#1 208418746#2 208418745 97106116#0 97106116#1 97106116#2 97106116#3 97106116#4"/>
    </vehicle>
    <vehicle depart="150.00" id="150">
        <route edges="97106116#4 97106112#0 97106112#1 97106112#2 97106112#3 97106119#0 97106119#1 97106119#2 97106119#3 97106119#4 97106119#5 208418744 208418743#0 208418743#1 96616031#2 564116389 96616032#0 96616032#1 96616032#2 539667087 96616028 539667086#0 539667086#1"/>
    </vehicle>
    <vehicle depart="152.00" id="152">
        <route edges="-438132551#0 96617609#1 96617609#2 -438132551#2 438132553#0 438132553#1 438132553#2 96616032#1 96616032#2 539667087 96616028 539667086#0 539667086#1"/>
    </vehicle>
    <vehicle depart="155.00" id="155">
        <route edges="97106101#1 97106101#2 97106101#3 208418592 208418591 204331653#4 204331653#5 96616031#0 96616031#1 96616031#2 564116389 96616032#0 96616032#1 -97100391#3 -97100391#2 -97100391#1"/>
    </vehicle>
    <vehicle depart="159.65" id="101" departLane="best" departSpeed="max">
        <route edges="1115991584#4 1228972039 1228972046 1115991586#0 1115991586#1 1115991586#2 540512677 539700918#0 539700918#1 539700918#2 539700918#3 539700918#4 539700918#5 539700918#6 540513236 -540714693#3"/>
    </vehicle>
    <vehicle depart="163.01" id="94" departLane="best" departSpeed="max">
        <route edges="104031268#1 98021460#1 -97675054#9 -97675054#8 -97675054#7 97772830#2 97772830#3 97772828#1 97772828#2 97772828#3 97772828#4 97733793#0 204331640 1192906928#2 1192906928#3 97535998#0 97535998#1 97535998#2 97535998#3 97535998#4 97535998#5 1244072109#0 1244072109#1 1244072109#2 1244072109#3"/>
    </vehicle>
    <vehicle depart="167.00" id="167">
        <route edges="95720648#0 95720648#1 95720648#2 95720645#2 95720645#3 95720645#4 154766469#0 154766469#1 97733798#0 97733798#1 97733798#2 97733798#3 97675053#4 97675053#5 97675053#6 97675053#7 97675054#0 97675054#1 97675054#2 97675054#3 97675054#4 97675054#5 97675054#6 97675054#7 97675054#8 97675054#9 98021460#2 98021460#3 98021460#4 95277282#4"/>
    </vehicle>
    <vehicle depart="168.42" id="31" departLane="best" departSpeed="max">
        <route edges="96614421#0 96614421#1 96616040#0 96616040#1 539700922#0 539700922#1 96616033 539700921 96616031#0 96616031#1 96616031#2 909783275#0 909783275#1 -438132549#3 -438132549#2 438132553#2"/>
    </vehicle>
    <vehicle depart="172.46" id="122" departLane="best" departSpeed="max">
        <route edges="94252639#5 94252639#6 97678824#2 97678824#3 97678824#4 97678824#5 97678824#6 97678824#7 -97675054#8 -97675054#7 97772830#2 97772830#3 97772828#1 97772828#2 97772828#3 97772828#4 97733793#0 97733793#1 97733793#2 97733793#3 97733793#4 95720651#0 95720651#1 95720651#2 95720651#3 95720651#4 539667094#2 539667094#3 539861455 164715306 1244072110 1222056733 95720654#0 95720654#1 95720654#2 95720654#3 97479791#0 97479791#1 97479791#2 1195588783#0 1195588783#1 1195588783#2 1195588783#3 1195588783#4 295047601#0 295047601#1 295047601#2 539861452#0"/>
    </vehicle>
    <vehicle depart="178.00" id="178">
        <route edges="98021460#7 95277286#3 97680608#0 97680608#1 97680608#2"/>
    </vehicle>
    <vehicle depart="178.17" id="147" departLane="best" departSpeed="max">
        <route edges="-1244072109#3 -1244072109#2 34888154#0 34888154#1 34888154#2 34888154#3 34888154#4 540714692#0 540714692#1 540714692#2 -22699877#5 -22699877#4 -22699877#3 -22699877#2 -22699877#1 -22699877#0 -1228972046 -1228972039 -1115991584#4"/>
    </vehicle>
    <vehicle depart="178.97" id="113" departLane="best" departSpeed="max">
        <route edges="-22699877#5 -22699877#4 -22699877#3 -22699877#2 -22699877#1 -22699877#0 1115991586#0 1115991586#1 1115991586#2 540512677 539700918#0 539700918#1 539700918#2 539700918#3 41601834#0 41601834#1 41601834#2 41601834#3 41601834#4 97675054#8 97675054#9 98021460#2 98021460#3 98021460#4 98021460#5 95265027#3"/>
    </vehicle>
    <vehicle depart="179.00" id="179">
        <route edges="-204331663#1 -204331663#0 97535997#1 95720645#5 95720645#0 95720651#0 95720651#1 95720651#2 95720651#3 95720651#4 539667094#2 539667094#3 539861455 164715306 173593849 1244072109#0 1244072109#1 34888154#0 34888154#1 34888154#2 34888154#3 34888154#4 540714692#0 540714692#1 540714692#2"/>
    </vehicle>
    <vehicle depart="182.00" id="182">
        <route edges="1227497169#1 1165469151#1 1165469151#2 1165469151#3 1165469151#4 1165469151#5 539667095#4 539667095#5 539667095#6 539861453 295047601#0 58801805#0 58801805#1 1104609141#1 1104609141#2"/>
    </vehicle>
    <vehicle depart="182.33" id="129" departLane="best" departSpeed="max">
        <route edges="95277283#7 98021460#4 98021460#5 98021460#6 98021460#7 95277286#3 97680608#0"/>
    </vehicle>
    <vehicle depart="185.20" id="91" departLane="best" departSpeed="max">
        <route edges="94252639#5 94252639#6 97678824#2 97678824#3 97678824#4 97678824#5 97678824#6 97678824#7 -97675054#8 -97675054#7 97772830#2 97772830#3 97772828#1 97772828#2 97772828#3 97772828#4 97733793#0 97733793#1 97733793#2 97733793#3 97733793#4 95720651#0 95720651#1 95720651#2 95720651#3 95720651#4 539667094#2 539667094#3 539861455 164715306 1244072110 539861454 -20027007#3 -20027007#2 -20027007#1"/>
    </vehicle>
    <vehicle depart="187.00" id="187">
        <route edges="1165469152#2 1165469152#3 1165469154#5 1165469154#6 1165469154#0 1165469154#1 1165469154#2 1165469154#3 1165469151#0 1165469151#1 1165469151#2 1165469151#3 1165469151#4 1165469151#5 539667095#4 539667095#5 539667095#6 539861453 295047601#0 58801805#0 58801805#1 1104609141#1 1104609141#2"/>
    </vehicle>
    <vehicle depart="191.63" id="153" departLane="best" departSpeed="max">
        <route edges="366567526#0 366567526#1 366567526#2 -1192906928#1 -1192906928#0 -1192906929#2 -1192906929#1 -1192906929#0 539667090 567578091 20026755 -539700918#6 -539700918#5 -539700918#4 41601834#0 41601834#1 41601834#2 41601834#3 41601834#4 97675054#8 97675054#9 98021460#2 98021460#3 98021460#4 98021460#5 98021460#6 98021460#7 95277286#3 102848201#0 102848201#1 102848200#4 102848200#0 96617277#0 96617277#1 96617277#2 96614421#1 96616040#0 96616040#1 539700922#0 539700922#1 96616033 539700921 96616031#0 96616031#1 96616031#2 564116389 96616032#0 -438132553#2 -438132553#1 438132548#1 -438132549#0 97100391#3"/>
    </vehicle>
    <vehicle depart="192.25" id="81" departLane="best" departSpeed="max">
        <route edges="96614421#0 96614421#1 96616040#0 96616040#1 539700922#0 539700922#1 96616033 539700921 96616031#0 208418746#0 208418746#1 208418746#2 208418745 97106116#0 97106116#1 97106116#2 97106116#3 97106116#4"/>
    </vehicle>
    <vehicle depart="194.00" id="194">
        <route edges="97733793#0 204331640 -1192906928#1 -1192906928#0 -1192906929#2 -1192906929#1 -1192906929#0 539667090 567578091 20026755 -539700918#6 -539700918#5 -539700918#4 41601834#0 41601834#1 41601834#2 41601834#3 41601834#4 97675054#8 97675054#9 98021460#2 98021460#3 98021460#4 98021460#5 98021460#6 98021460#7 95277286#3 102848201#0 102848201#1 102848200#4 102848200#0 96617277#0 96617277#1 96617277#2 96614421#1 96616040#0 96616040#1 539700922#0 539700922#1 96616033 539700921 96616031#0 96616031#1 96616031#2 909783275#0 909783275#1 909783275#2 909783275#3 909783275#4 438132547#0 438132547#1"/>
    </vehicle>
    <vehicle depart="195.00" id="195">
        <route edges="97106116#1 97106116#2 97106116#3 97106116#4 97106112#0 97106112#1 97106112#2 97106112#3 97106119#0 97106119#1 97106119#2 97106119#3 97106119#4 97106119#5 208418744 208418743#0 208418743#1 96616031#2 564116389 539667088 539700921 -204331653#5 -204331653#4 96617275#0 97680600#0 97680600#1 97678824#0 97678824#1 97678824#2 97678824#3 97678824#4 97678824#5 97678824#6 97678824#7 -97675054#8 -97675054#7 97772830#2 97772830#3 97772828#1 1029856084#3 539700920#0 539700920#1 539700920#2 539700920#3 20026755 540513236 -540714693#3 -540714693#2 -540714693#1 -540714693#0 540714692#0 540714692#1 540714692#2"/>
    </vehicle>
    <vehicle depart="195.47" id="105" departLane="best" departSpeed="max">
        <route edges="96614421#0 96614421#1 96616040#0 96616040#1 539700922#0 539700922#1 96616033 539700921 96616031#0 96616031#1 96616031#2 909783275#0 909783275#1 909783275#2 909783275#3"/>
    </vehicle>
    <vehicle depart="195.95" id="135" departLane="best" departSpeed="max">
        <route edges="104031268#1 98021460#1 -97675054#9 -97675054#8 -97675054#7 97772830#2 97772830#3 97772828#1 97772828#2 97772828#3 97772828#4 97733793#0 97733793#1 97733793#2 97733793#3 97733793#4 95720651#0 95720651#1 95720651#2 95720651#3 95720651#4 539667094#2 539667094#3 539861455 164715306 1244072110 1222056733 95720654#0 95720654#1 95720654#2 95720654#3 97479791#0 97479791#1 97479791#2 1195588783#0 1195588783#1 1195588783#2 1195588783#3 1195588783#4 295047601#0 58801805#0 58801805#1 1104609141#1 1104609141#2"/>
    </vehicle>
    <vehicle depart="197.44" id="60" departLane="best" departSpeed="max">
        <route edges="-22699877#5 -22699877#4 -22699877#3 -22699877#2 -22699877#1 -22699877#0 1115991586#0 1115991586#1 1115991586#2 540512677 539700918#0 539700918#1 539700918#2 539700918#3 539700918#4 539700918#5 539700918#6 540513236 -540714693#3 -540714693#2 -540714693#1 -540714693#0 540714692#0"/>
    </vehicle>
    <vehicle depart="202.77" id="132" departLane="best" departSpeed="max">
        <route edges="94252639#5 94252639#6 97678824#2 97678824#3 97678824#4 97678824#5 97678824#6 97678824#7 -97675054#8 -97675054#7 97772830#2 97772830#3 97772828#1 97772828#2 97772828#3 97772828#4 97733793#0 97733793#1 97733793#2 97733793#3 97733793#4 95720651#0 95720651#1 95720651#2 95720651#3 95720651#4 539667094#2 539667094#3 539861455 164715306 1244072110 1222056733 95720654#0 95720654#1 95720654#2 95720654#3 97479791#0 97479791#1 97479791#2 1195588783#0 1195588783#1 1195588783#2 1195588783#3 1195588783#4 295047601#0 295047601#1 295047601#2 539861452#0 539861452#1 539667095#0 539667095#1"/>
    </vehicle>
    <vehicle depart="209.00" id="209">
        <route edges="95265027#0 95265027#1 97678824#3 97678824#4 97678824#5 97678824#6 97678824#7 -97675054#8 -97675054#7 97772830#2 97772830#3 97772828#1 1029856084#3 539700920#0 539700920#1 539700920#2 539700920#3 20026755 540513236 -540714693#3 -540714693#2 -540714693#1 -540714693#0 540714692#0 540714692#1 540714692#2"/>
    </vehicle>
    <vehicle depart="209.81" id="123" departLane="best" departSpeed="max">
        <route edges="1115991584#4 1228972039 1228972046 1115991586#0 1115991586#1 1115991586#2 540512677 539700918#0 539700918#1 539700918#2 539700918#3 539700918#4 539700918#5 539700918#6 540513236 539667091 1192906929#0 1192906929#1 1192906929#2 1192906928#0 1192906928#1 1192906928#2 1192906928#3 97535998#0 97535998#1 97535998#2 97535998#3 97535998#4 97535998#5 1244072109#0"/>
    </vehicle>
    <vehicle depart="212.00" id="212">
        <route edges="208416869#1 208416869#2 -1244072109#3 -1244072109#2 34888154#0 34888154#1 34888154#2 34888154#3 34888154#4 540714692#0 540714692#1 540714692#2 -22699877#5 -22699877#4 -22699877#3 -22699877#2 -22699877#1 -22699877#0 -1228972046 -1228972039 -1115991584#4"/>
    </vehicle>
    <vehicle depart="213.00" id="213">
        <route edges="426723134#0 426723134#1 426723134#2 426723134#3 95720648#0 95720648#1 95720648#2 95720645#2 95720645#3 95720645#4 95720645#5 95720645#0 95720651#0 95720651#1 95720651#2 95720651#3 95720651#4 539667094#2 539667094#3 539861455 164715306 173593849 1244072109#0 1244072109#1 34888154#0 34888154#1 34888154#2 34888154#3 34888154#4 540714692#0 540714692#1 540714692#2 -22699877#5 -22699877#4 -22699877#3 -22699877#2 -22699877#1 -22699877#0 -1228972046 -1228972039 -1115991584#4"/>
    </vehicle>
    <vehicle depart="222.00" id="222">
        <route edges="96617275#2 96617277#1 96617277#2 96614421#1 539700217 539667086#0 539667086#1"/>
    </vehicle>
    <vehicle depart="223.00" id="223">
        <route edges="540714692#1 540714692#2"/>
    </vehicle>
    <vehicle depart="223.59" id="75" departLane="best" departSpeed="max">
        <route edges="1115991584#4 1228972039 1228972046 1115991586#0 1115991586#1 1115991586#2 540512677 539700918#0 539700918#1 539700918#2 539700918#3 41601834#0"/>
    </vehicle>
    <vehicle depart="235.23" id="185" departLane="best" departSpeed="max">
        <route edges="-22699877#5 1227486578#0 1227486578#1 540714692#2"/>
    </vehicle>
    <vehicle depart="235.37" id="98" departLane="best" departSpeed="max">
        <route edges="96614421#0 96614421#1 96616040#0 96616040#1 539700922#0 539700922#1 96616033 539700921 96616031#0 208418746#0 208418746#1 208418746#2 208418745 97106116#0 97106116#1 97106116#2 97106116#3 97106116#4 97106112#0 97106112#1 1116009375#0 1116009375#1 1116009375#2 1116009375#3 1116009375#4 1165469158 1165469157 1116009376#2 1116009376#3 1116009380#0 1116009380#1 1116009380#2 1116009378#2 1116009381 1165469154#1 1165469154#2 1165469154#3 1165469151#0 1165469151#1 1165469151#2 -1227497174#1"/>
    </vehicle>
    <vehicle depart="240.00" id="240">
        <route edges="1216918181#0 1216918181#1 1216918181#2 1165469153#2 1165469153#3 1116009378#4 1116009378#0 1116009379#0 1116009379#1 1116009379#2 1116009379#3 1116009376#5 1116009376#0 1165469159#0 1165469159#1 1165469160 1116009377#0 1116009377#1 1116009377#2 1116009377#3 1116009377#4 97106112#3 97106119#0 97106119#1 97106119#2 97106119#3 97106119#4 97106119#5 208418744 208418743#0 208418743#1 96616031#2 564116389 96616032#0 96616032#1 96616032#2 539667087 96616028 539667086#0 539667086#1"/>
    </vehicle>
    <vehicle depart="242.00" id="242">
        <route edges="95277282#1 95277282#2 97678824#4 97678824#5 97678824#6 97678824#7 -97675054#8 -97675054#7 97772830#2 97772830#3 97772828#1 97772828#2 97772828#3 97772828#4 97733793#0 97733793#1 97733793#2 97733793#3 97733793#4 95720651#0 95720651#1 95720651#2 95720651#3 95720651#4 539667094#2 1222056731 97733819#0 97733819#1 97733819#2"/>
    </vehicle>
    <vehicle depart="246.46" id="121" departLane="best" departSpeed="max">
        <route edges="-22699877#5 -22699877#4 -22699877#3 -22699877#2 -22699877#1 -22699877#0 1115991586#0 1115991586#1 1115991586#2 540512677 539700918#0 539700918#1 539700918#2 539700918#3 41601834#0 41601834#1 41601834#2 41601834#3 41601834#4 97675054#8 97675054#9 98021460#2 98021460#3 98021460#4 95277282#4 97680608#3"/>
    </vehicle>
    <vehicle depart="251.00" id="251">
        <route edges="1244072109#0 1244072109#1 34888154#0 34888154#1 34888154#2 34888154#3 34888154#4 540714692#0 540714692#1 540714692#2"/>
    </vehicle>
    <vehicle depart="252.00" id="252">
        <route edges="-1115991586#2 -1115991586#1 -1115991586#0 -1228972046 -1228972039 -1115991584#4"/>
    </vehicle>
    <vehicle depart="254.00" id="254">
        <route edges="-1228972046 -1228972039 -1115991584#4"/>
    </vehicle>
    <vehicle depart="258.03" id="200" departLane="best" departSpeed="max">
        <route edges="540714693#0 540714693#1 540714693#2 540714693#3 539667091 539667090 567578091 20026755 -539700918#6 -539700918#5 -539700918#4 41601834#0 41601834#1 41601834#2 41601834#3 41601834#4 -97675054#7 -97675054#6 -97675054#5 -97675054#4 -97675054#3 -97675054#2 -97675054#1 -97675054#0"/>
    </vehicle>
    <vehicle depart="259.00" id="259">
        <route edges="-104028539 98021462#0 98021462#1 98021462#2 98021462#3 539700918#0 539700918#1 539700918#2 539700918#3 539700918#4 539700918#5 539700918#6 540513236 -540714693#3 -540714693#2 -540714693#1 -540714693#0 540714692#0"/>
    </vehicle>
    <vehicle depart="260.04" id="241" departLane="best" departSpeed="max">
        <route edges="1115991584#4 1228972039 1228972046 22699877#0 22699877#1 22699877#2 22699877#3 22699877#4 22699877#5"/>
    </vehicle>
    <vehicle depart="261.26" id="207" departLane="best" departSpeed="max">
        <route edges="1115991584#4 1228972039 1228972046 1115991586#0 1115991586#1 1115991586#2 540512677 539700918#0 539700918#1 539700918#2 539700918#3 539700918#4 539700918#5 539700918#6 540513236 -540714693#3 -540714693#2 -540714693#1 -540714693#0"/>
    </vehicle>
    <vehicle depart="262.00" id="262">
        <route edges="41601834#3 41601834#4 -97675054#7 97772830#2 97772830#3 97772828#1 1029856084#3 539700920#0 539700920#1 539700920#2 539700920#3 20026755 540513236 -540714693#3 -540714693#2 -540714693#1 -540714693#0 540714692#0 540714692#1 540714692#2"/>
    </vehicle>
    <vehicle depart="267.00" id="263" departLane="best" departSpeed="max">
        <route edges="97733818#6 97733818#7 97733818#8 97675053#5 97675053#6 97675053#7 97675054#0 97675054#1 97675054#2 97675054#3 97675054#4 97675054#5 97675054#6 97675054#7 97675054#8 97675054#9 98021460#2 98021460#3 98021460#4 95277282#4"/>
    </vehicle>
    <vehicle depart="267.67" id="166" departLane="best" departSpeed="max">
        <route edges="104031268#1 98021460#1 -97675054#9 -97675054#8 -97675054#7 97772830#2 97772830#3 97772828#1 97772828#2 97772828#3 97772828#4 97733793#0 97733793#1 97733793#2 97733793#3 97733793#4 95720651#0 -204331652#1 -204331652#0"/>
    </vehicle>
    <vehicle depart="271.00" id="271">
        <route edges="-204331663#0 97535997#1 95720645#5 95720645#0 95720651#0 95720651#1 95720651#2 95720651#3 95720651#4 539667094#2 539667094#3 539861455 164715306 173593849 1244072109#0 1244072109#1 34888154#0 34888154#1 34888154#2 34888154#3 34888154#4 540714692#0 540714692#1 540714692#2 -22699877#5 -22699877#4 -22699877#3 -22699877#2 -22699877#1 -22699877#0 -1228972046 -1228972039 -1115991584#4"/>
    </vehicle>
    <vehicle depart="273.00" id="273">
        <route edges="97772832#0 204331659#1 95277283#11 97675052#0 1029856085 97772830#0 97772830#1 97772830#2 97772830#3 97772828#1 97772828#2 97772828#3 97772828#4 97733793#0 204331640 1192906928#2 1192906928#3 97535998#0 97535998#1 97535998#2 97535998#3 97535998#4 97535998#5 1244072109#0 1244072109#1 1244072109#2"/>
    </vehicle>
    <vehicle depart="277.00" id="277">
        <route edges="95265027#1 95265027#2 95265027#3"/>
    </vehicle>
    <vehicle depart="283.00" id="283">
        <route edges="-204331653#0 -208418469#1 -208418469#0 -208418465#1 -208418465#0 -102841119#3 -102841119#2 -102841119#1 97106106#0 97106106#1 97106106#2 97106106#3 97675054#1 97675054#2 97675054#3 97675054#4 1029856084#0 1029856084#1 1029856084#2 1029856084#3 97778891#0"/>
    </vehicle>
    <vehicle depart="292.56" id="246" departLane="best" departSpeed="max">