<?xml version="1.0" encoding="UTF-8"?>

<!-- generated on 2024-12-03 16:55:40.430967 by cutRoutes.py UNKNOWN
  options: partition_1.net.xml viladecans.rou.xml <doubleminus>routes-output partition_1.rou.xml <doubleminus>orig-net viladecans.net.xml
-->

<routes xmlns:xsi="http://www.w3.org/2001/XMLSchema-instance" xsi:noNamespaceSchemaLocation="http://sumo.dlr.de/xsd/routes_file.xsd">
    <vehicle depart="1.00" id="1">
        <route edges="102825242#1 97681571#4 97681571#5 102694207#0 102694207#1 102694207#2 102694207#3 95593743#2 95593743#3 665467170#0 665467170#1 665467170#2 665467170#3 665467170#4 665467170#5 665467170#6 665467170#7 665467170#8 665467170#9 96614440#1 539700223 539672015#0 98855834#0 98855834#1 98855834#2 98855834#3 98855834#4 98550013 437995546 98640750#0 98640750#1 98640750#2 -98989098#6 -98989098#5 -98989098#4 -98989098#3 -98989098#2"/>
    </vehicle>
    <vehicle depart="7.00" id="7">
        <route edges="415698700 22875666#3 22875666#4 22875667 22875654#2 22875654#3 22875659#0 22875659#1 22875661#0 22875661#1 22875666#0 22875666#1 22875666#2"/>
    </vehicle>
    <vehicle depart="9.00" id="9">
        <route edges="93951869#3 93950926#8 93976560#3 93950928#0 93950928#1 93950928#2 93950928#3 539672010#0 539672010#1 -101969263#1 -101969263#0 539672008 93917262 559486118#0 559486118#1 93917261#0 93917261#1 93917261#2 101962746#0 101962746#1 101962747#0 101962747#1 101962747#2 147855374#4 147855374#5 101966231 101966229#3 101966229#0 -101966235#7"/>
    </vehicle>
    <vehicle depart="10.00" id="10">
        <route edges="93950935#0 539700229#0 539700229#1 93950520#0 93950928#3 539672010#0 539672010#1 -101969263#1 -101969263#0 539672008 539699080 93628276#0 94130235#0 94130235#1 94252661#0 94252661#1 -428130456#1 -428130456#0 567558163#0 567558163#1 438147565 -94137765 94137777 567558162 569027934 1232198391 95260872#0 95260872#1 93516579#4 93516579#0 -454549845 -232119712 -445900688#1 -445900688#0"/>
    </vehicle>
    <vehicle depart="11.00" id="11">
        <route edges="1115991584#2"/>
    </vehicle>
    <vehicle depart="14.00" id="14">
        <route edges="95260872#0 95260872#1 93516579#4 93516579#0 93516579#1 93516579#2 95260873#0 96612663#0 96612663#1 96612663#2 96612663#3 102818450#2 102818450#3 102818450#4 454549844#0 454549844#1 454549844#2 1116322034#0 1116322034#1 1116322034#2 1116322036#0 1116322036#1 1115991584#0 1115991584#1 1115991584#2"/>
    </vehicle>
    <vehicle depart="18.00" id="18">
        <route edges="94252637#1 436982219#0 436982219#1 436982219#2 436982219#3 436982219#4 94252650#1 569027940 567578097#0 567578097#1 94252639#0 94252639#1 94252639#2 94252639#3"/>
    </vehicle>
    <vehicle depart="21.00" id="21">
        <route edges="101287095#0 101287095#1 101287095#2 101287099#0 101287099#1 102297060 93950928#0 93950928#1 93950928#2 93950928#3 539672010#0 539672010#1 -101969263#1 -101969263#0 539672008 539699080 93628276#0 94130235#0 94130235#1 94252661#0 94252661#1 -428130456#1 -428130456#0 567558163#0 567558163#1 569027932 94137804#0 94137773 -97535993#2 -97535993#1 -97535993#0 102694900#0 102836997 102818450#0 102818450#1 102818450#2 102818450#3 102818450#4 454549844#0 454549844#1 454549844#2 1116322034#0 1116322034#1 1116322034#2 102825237#0 102825237#1 102825237#2 1103600164 102851882#0"/>
    </vehicle>
    <vehicle depart="21.24" id="6" departLane="best" departSpeed="max">
        <route edges="-1115991584#2 -1115991584#1 -1115991584#0 -1116322036#1 -1116322036#0 102825237#0 102825237#1 102825237#2 102825237#3 102825237#4 102825237#5 102825238 102694900#2 102694900#3 97535993#0 97535993#1 97535993#2 438147567 94137804#2 569027931 567558163#0 94137785 94137783 96346738#1 96346738#2 -94120358#6 -94120358#5"/>
    </vehicle>
    <vehicle depart="22.00" id="22">
        <route edges="-147855374#6 -147855374#5 -147855374#4 -147855374#3 -147855374#2 -147855374#1 -147855374#0 442675496 567558160 539672007 -93917261#3 -93917261#2 -93917261#1 -93917261#0 -559486118#1 -559486118#0 94130232 93628276#0 93628276#1 93628276#2 93628276#3 101969263#0 93950926#0 93950926#1 93950926#2 93950926#3 93950926#4 93950926#5 93950926#6 93950926#7 93950926#8 93976560#3 102297055 101287103 101287095#0 101287095#1"/>
    </vehicle>
    <vehicle depart="29.00" id="29">
        <route edges="-559486118#0 94130232 93628276#0 94130235#0 94130235#1 94252661#0 94252661#1 -428130456#1 -428130456#0 567558163#0 567558163#1 569027932 94137804#0 94137773 -97535993#2 -97535993#1 -97535993#0 102694900#0 102694900#1 102694900#2 102825242#0 102825242#1 97681571#4"/>
    </vehicle>
    <vehicle depart="31.00" id="31">
        <route edges="22887544#0 157160715 178227486#1 93978668#0 93978668#1 93978668#2 101966235#0 101966235#1 101966235#2 101966235#3 101966235#4 101966235#5 101966235#6 101966235#7 101966229#1 -101966238#1 101966239 -93917260#0 567558161#1 147855375 240751742 1232198391 94137753 1232166418#0 1232166418#1 94137758 94137765 124212330 94137804#0 94137773 -97535993#2 95593743#0 95593743#1 95593743#2 95593743#3 665467170#0 665467170#1 665467170#2 665467170#3 665467170#4 665467170#5 665467170#6 665467170#7 665467170#8 665467170#9 96614440#1 96614415#0 96614415#1 96614415#2 539700222#0 539700222#1 539700222#2"/>
    </vehicle>
    <vehicle depart="33.00" id="33">
        <route edges="101287096 101287095#1 101287095#2 101287099#0 101287099#1 102297060 93950928#0 93950928#1 93950928#2 93950928#3 539672010#0 539672010#1 -101969263#1 -101969263#0 539672008 539699080 93628276#0 94130235#0 94130235#1 94252661#0 -94252652 96346738#2 96346738#3 -94137811#1 -94137811#0 147855376#1 567558161#0 93917260#0 93917260#1 95261198 1103605171 454549846#0 454549846#1 454549846#2 -1116324296#3 -1116324296#2 -1116324296#1 -1116324296#0"/>
    </vehicle>
    <vehicle depart="35.00" id="35">
        <route edges="-97536331#3 96612663#2 96612663#3 102818450#2 102818450#3 102818450#4 454549844#0 454549844#1 454549844#2 1116322034#0 1116322034#1 1116322034#2 1116322036#0 1116322036#1 1115991584#0 1115991584#1 1115991584#2"/>
    </vehicle>
    <vehicle depart="39.00" id="39">
        <route edges="102695824 1232166418#1 569027933 567558162 569027934 1232198391 95260872#0 95260872#1 93516579#4 -94132455#1 -94132455#0 94132453#2 94132453#3 124210486 22921471#0 22921471#1 22921471#2 22921471#3 93978668#0 93978668#1 93978668#2 101966235#0 101966235#1 101966235#2 101966235#3 101966235#4 101966235#5 101966235#6 101966235#7"/>
    </vehicle>
    <vehicle depart="40.00" id="40">
        <route edges="22921458#0 22921458#1 26359434#0 26359434#1 26359434#2 1019494072 461440847 93630409#0 93630409#1 93630409#2 93630409#3 93630409#4 441650775 22887531#0 22887531#1 22887531#2 93917265 147855374#0 93917259#0 93917259#1 93917259#2 94120358#1 94120358#2 94120358#3 94120358#4 94120358#5 94120358#6 96346738#3 96346738#0 -94137783 94137789 569027932 94137804#0 94137773 -97535993#2 95593743#0 95593743#1 95593743#2 95593743#3 665467171#0 102694206#6"/>
    </vehicle>
    <vehicle depart="46.00" id="46">
        <route edges="93917261#0 93917261#1 -101969260 -93917261#0 -559486118#1 94120358#0 94120358#1 94120358#2 94120358#3 94120358#4 94120358#5 94120358#6 96346738#3 96346738#0 -94137783 94137789 569027932 94137804#0 94137773 -97535993#2 95593743#0 95593743#1 95593743#2 95593743#3 665467171#0 665467171#1 665467171#2 665467171#3 97681571#7"/>
    </vehicle>
    <vehicle depart="47.85" id="16" departLane="best" departSpeed="max">
        <route edges="103010274#0 103010274#1 103010274#2 1116322034#0 1116322034#1 1116322034#2 102825237#0 102825237#1 102825237#2 102825237#3 102825237#4 102825237#5 102825238 102694900#2 102694900#3 97535993#0 97535993#1 95593743#0 95593743#1 95593743#2 95593743#3 665467170#0 665467170#1 665467170#2 665467170#3 665467170#4 665467170#5 665467170#6 665467170#7 665467170#8 665467170#9 96614440#1 539700223 539672015#0 98855834#0 98855834#1 98855834#2 98855834#3 98855834#4 98550014#0 98550014#1"/>
    </vehicle>
    <vehicle depart="48.00" id="48">
        <route edges="99027559#2 93976560#2 93976560#3 93950928#0 93950928#1 93950928#2 93950928#3 539672010#0 539672010#1 -101969263#1 -101969263#0 539672008 539699080 93628276#0 94130235#0 94130235#1 94252661#0 94252661#1 -428130456#1 -428130456#0 567558163#0 567558163#1 438147565 -94137765 94137777 567558162 569027934 1232198391 95260872#0 95260872#1 93516579#4 93516579#0 -454549845 -232119712 -445900688#1 -445900688#0"/>
    </vehicle>
    <vehicle depart="49.00" id="49">
        <route edges="98546972#1 98546970#1 -98550013 98550014#0 98855837#0 98855837#1 98855837#2 -98989098#1 -98989098#0 94252644#1 539700226 539672014 539700225 96614444#0 96614444#1 95595126#0 95595126#1 95595126#2 95595126#3 95595126#4 94252639#0 94252639#1 102694206#1 102694206#2 102694206#3 102694206#4 95277283#3"/>
    </vehicle>
    <vehicle depart="59.30" id="12" departLane="best" departSpeed="max">
        <route edges="97681572#0 97681572#1 97681572#2 102694207#1 102694207#2 102694206#7 102695820#0 102695820#1 102695820#2 102695824 1232166418#1 569027933 567558162 240751741 -147855375 147855376#0 147855376#1 -147855374#9 -147855374#8 101962753#0 101962753#1 101962753#2 1104490491"/>
    </vehicle>
    <vehicle depart="64.00" id="64">
        <route edges="96612662 102696588#0 102695824 1232166418#1 94137758 94137765 124212330 94137804#0 94137804#1 94137804#2 569027931 428130456#0 94252656#0 94252656#1 94392707#2 569027941 94392696#0 94392696#1 569027940 567578097#0 567578097#1 94252639#0"/>
    </vehicle>
    <vehicle depart="66.00" id="66">
        <route edges="96612661#1 96612661#2 93516579#2 95260873#0 96612663#0 96612663#1 96612663#2 96612663#3 102818450#2 102818450#3 102818450#4 454549844#0 454549844#1 454549844#2 1116322034#0 1116322034#1 1116322034#2 1116322036#0 1116322036#1 1115991584#0 1115991584#1 1115991584#2"/>
    </vehicle>
    <vehicle depart="69.28" id="19" departLane="best" departSpeed="max">
        <route edges="97681572#0 97681572#1 97681572#2 102694207#1 102694207#2 102694206#7 102695820#0 102695820#1 102695820#2 102695824 1232166418#1 569027933 567558162 240751741 240751742"/>
    </vehicle>
    <vehicle depart="71.00" id="71">
        <route edges="102695824 1232166418#1 569027933 567558162 569027934 1232198391 95260872#0 95260872#1 93516579#4 93516579#0 -454549845 -232119712 -445900688#1 -445900688#0"/>
    </vehicle>
    <vehicle depart="74.00" id="74">
        <route edges="-94252645 539700228 94120343#0 102289415 406736945#0 406736945#1 94252637#1 94132447 406736944#1 93976561#0 93976561#1 94392694#1 94252661#3 94252661#0 94252661#1 -428130456#1 -428130456#0 567558163#0 567558163#1 438147565 -94137765 94137777 567558162 569027934 1232198391 95260872#0 95260872#1 93516579#4 93516579#0 -454549845 -232119712 -445900688#1 -445900688#0"/>
    </vehicle>
    <vehicle depart="75.00" id="75">
        <route edges="99027559#0 99027559#1 99027559#2 93976560#2 93976560#3 93950928#0 93950928#1 93950928#2 93950928#3 539672010#0 539672010#1 -101969263#1 -101969263#0 539672008 539699080 93628276#0 94130235#0 94130235#1 94252661#0 94252661#1 -428130456#1 -428130456#0 567558163#0 567558163#1 569027932 94137804#0 94137773 -97535993#2 -97535993#1 -97535993#0 102694900#0 102836997 102818450#0 102818450#1 102818450#2 102818450#3 102818450#4 454549844#0 454549844#1 454549844#2 1116322034#0 1116322034#1 1116322034#2 1116322036#0 1116322036#1 1115991584#0 1115991584#1 1115991584#2"/>
    </vehicle>
    <vehicle depart="77.87" id="51" departLane="best" departSpeed="max">
        <route edges="96614431#1 539667085#0 539667085#1 96614418 539672015#0 539672015#1 96614442 94252644#0 94252644#1 539700226 539672014 539700225 96614444#0 96614444#1 95595126#0 95595126#1 95595126#2 95595126#3 95595126#4 567578096 567578095 567558164 -1188682900 -567558165 -567578094 -95277284 428130542 567558163#0 567558163#1 438147565 -94137765 94137777 567558162 569027934 1232198391 95260872#0 95260872#1 93516579#4 93516579#0 -454549845 -232119712 -445900688#1 -445900688#0"/>
    </vehicle>
    <vehicle depart="79.00" id="79">
        <route edges="101287099#0 101287099#1 102297060 93950928#0 93951869#3 93950926#8 93950926#9 93950926#10 99029269 99027559#1 99027559#2 99027559#3 99025561 -665581513 -99025560 -98642050#2 -98642050#1 -98642050#0"/>
    </vehicle>
    <vehicle depart="81.00" id="81">
        <route edges="101287096 101287095#1 101287095#2 101287099#0 101287099#1 102297060 93950928#0 93950928#1 93950928#2 93950520#1 93950520#2 94120343#0 94120343#1 94252645 539700227#0 539700227#1 -95595127#1 -95595127#0 539700226 539672014 539700225 96614444#0 96614444#1 96614444#2 96614440#0 96614440#1 96614415#0 96614415#1 96614415#2 539700222#0 539700222#1 539700222#2"/>
    </vehicle>
    <vehicle depart="82.00" id="82">
        <route edges="95277283#3 95277283#4 97681572#1 97681572#2 102694207#1 102694207#2 102694206#7 102695820#0 102695820#1 102695820#2 -97536331#3 -97536331#2 96612661#1 96612661#2 93516579#2 93516579#3 93516579#4 93516579#0 -454549845 -232119712 -445900688#1 -445900688#0"/>
    </vehicle>
    <vehicle depart="83.00" id="83">
        <route edges="101962753#1 101962753#2 1104490491 101962755#0 101962755#1 147855374#9 567558161#0 567558161#1 147855375 240751742 1232198391 95260872#0 95260872#1 93516579#4 93516579#0 -454549845 -232119712 -445900688#1 -445900688#0"/>
    </vehicle>
    <vehicle depart="85.00" id="85">
        <route edges="97681571#0 97681571#1 97681571#2 97681571#3 97681571#4"/>
    </vehicle>
    <vehicle depart="87.00" id="87">
        <route edges="93951865#1 102297062 313172139#2 313172139#3 313172139#4 313172139#5 313172139#6 313172139#7 93628270#1 93628270#2 22887438#0 22887438#1 569027938 22887491#0 22887491#1 567558158#0 567558158#1 567558158#2 559486117#0 559486117#1 22887505#0 22887505#1 863346088 863346089 559486116#0 559486116#1 559486115 539672006 232359814 -93630409#4 -93630409#3 -93630409#2 -93630409#1"/>
    </vehicle>
    <vehicle depart="91.00" id="91">
        <route edges="98989098#1 98989098#2 99025556#0 99025556#1 99025556#2 98855837#2 -98989098#1 -98989098#0 94252644#1 539700226 539672014 539700225 96614444#0 96614444#1 95595126#0 95595126#1 95595126#2 95595126#3 95595126#4 94252639#0 94252639#1 94252639#2 94252639#3"/>
    </vehicle>
    <vehicle depart="94.00" id="94">
        <route edges="-93917261#0 -559486118#1 94120358#0 94120358#1 94120358#2 94120358#3 94120358#4 94120358#5 94120358#6 96346738#3 96346738#0 -94137783 94137789 569027932 94137804#0 94137773 -97535993#2 -97535993#1 -97535993#0 102694900#0 102694900#1 102694900#2 102825242#0 102825242#1 97681571#4"/>
    </vehicle>
    <vehicle depart="96.00" id="96">
        <route edges="102287915#2 102287915#3 102287917#0 102287917#1 102287917#2 93951870 93950926#2 94252637#0 94252637#1 436982219#0 436982219#1 436982219#2 436982219#3 436982219#4 94252650#1 569027940 567578097#0 567578097#1 94252639#0 94252639#1 94252639#2 94252639#3"/>
    </vehicle>
    <vehicle depart="97.00" id="97">
        <route edges="157160715 178227486#1 93978668#0 93978668#1 93978668#2 101966235#0 101966235#1 101966235#2 101966235#3 101966235#4 101966235#5 101966235#6 101966235#7 101966229#1 -101966238#1 101966239 -93917260#0 567558161#1 147855375 240751742 1232198391 94137753 1232166418#0 1232166418#1 94137758 94137765 124212330 94137804#0 94137773 -97535993#2 95593743#0 95593743#1 95593743#2 95593743#3 665467170#0 95277283#2 95277283#3 95277283#4"/>
    </vehicle>
    <vehicle depart="98.00" id="98">
        <route edges="22875682#0 22875682#1 22875682#2 22875682#3 22875682#4 22875682#5 -22875661#2 -22875661#1 -22875661#0 22875659#2 -102290845#1 -102290845#0 539700229#0 539700229#1 93950520#0 93950520#1 93950520#2 94120343#0 94120343#1 94252645 539700227#0 539700227#1 -95595127#1 -95595127#0 539700226 539672014 539700225 96614444#0 96614444#1 96614444#2 96614440#0 96614440#1 96614415#0 96614415#1 96614415#2 539700222#0 539700222#1 539700222#2"/>
    </vehicle>
    <vehicle depart="99.00" id="99">
        <route edges="99030146 99032690 101287100 101287102 -102297055 93950928#0 93950928#1 93950928#2 93950520#1 93950520#2 94120343#0 94120343#1 94252645 539700227#0 539700227#1 -95595127#1 -95595127#0 539700226 -94392701#1 -94392701#0 94252641#0 94252641#1 -94392700#1 -94392700#0 539672012 94252646#0 94252646#1"/>
    </vehicle>
    <vehicle depart="101.00" id="101">
        <route edges="95260873#1 95260873#2 1232166418#0 1232166418#1 569027933 567558162 569027934 1232198391 95260872#0 95260872#1 93516579#4 93516579#0 93516579#1 93516579#2 95260873#0 96612663#0 96612663#1 96612663#2 96612663#3 102818450#2 102818450#3 102818450#4 454549844#0 454549844#1 454549844#2 1116322034#0 1116322034#1 1116322034#2 1116322036#0 1116322036#1 1115991584#0 1115991584#1 1115991584#2"/>
    </vehicle>
    <vehicle depart="105.00" id="105">
        <route edges="102696588#0 102695824 1232166418#1 94137758 94137765 124212330 94137804#0 94137773 -97535993#2 95593743#0 95593743#1 95593743#2 95593743#3 665467170#0 665467170#1 665467170#2 665467170#3 665467170#4 665467170#5 665467170#6 665467170#7 665467170#8 665467170#9 96614440#1 96614415#0 96614415#1 96614415#2 539700222#0 539700222#1 539700222#2"/>
    </vehicle>
    <vehicle depart="107.18" id="100" departLane="best" departSpeed="max">
        <route edges="98546970#1 -98550013 98550014#0 98855837#0 98855837#1 98855837#2 -98989098#1 -98989098#0 94252644#1 539700226 539672014 539700225 96614444#0 96614444#1 95595126#0 95595126#1 95595126#2 95595126#3 95595126#4 94252639#0 94252639#1 94252639#2 94252639#3"/>
    </vehicle>
    <vehicle depart="108.00" id="108">
        <route edges="22887505#0 22887505#1 863346088 863346089 559486116#0 559486116#1 559486115 539672006 539699082 22887531#0 22887531#1 22887531#2 93917265 147855374#0 147855374#1 147855374#2 147855374#3 147855374#4 147855374#5 101966231 101966229#3 101966229#0 101966229#1 -101966238#1 101966239 93917260#1 -124210486 94132453#4 94132453#0 94132453#1 94132455#0 94132455#1 93516579#0 -454549845 -232119712 -445900688#1 -445900688#0"/>
    </vehicle>
    <vehicle depart="111.00" id="111">
        <route edges="22875628#1 26374096#3 567558155#0 907496131 22875682#5 22875661#3 22875661#4 22887438#1 569027938 22887491#0 22887491#1 567558158#0 567558158#1 567558158#2 559486117#0 559486117#1 22887505#0 22887505#1 863346088 863346089 559486116#0 559486116#1 559486115 539672006 539699082 22887531#0 22887531#1 22887531#2 93917265 147855374#0 147855374#1 147855374#2 147855374#3 147855374#4 147855374#5 101966231 101966229#3 101966229#0 101966229#1 -101966238#1 101966239 93917260#1 -124210486 94132453#4 94132453#0 94132453#1 94132455#0 94132455#1 93516579#0 -454549845 -232119712 -445900688#1 -445900688#0"/>
    </vehicle>
    <vehicle depart="113.57" id="17" departLane="best" departSpeed="max">
        <route edges="-1115991584#2 -1115991584#1 -1115991584#0 -1116322036#1 -1116322036#0 102825237#0 102825237#1 102825237#2 102825237#3 102825237#4 102825237#5 102825238 102694900#2 102694900#3 97535993#0 97535993#1 97535993#2 438147567 94137804#2 569027931 428130456#0 428130456#1 94252661#2 94252661#3 -94130235#1 -94130235#0 93628276#1 93628276#2 93628276#3 101969263#0 101969263#1 539672009 93628270#0 93628270#1 93628270#2 22887438#0 22887438#1 22875689#0 22875689#1 22875689#2"/>
    </vehicle>
    <vehicle depart="117.00" id="117">
        <route edges="101962747#1 101962747#2 147855374#4 147855374#5 101966231 101966229#3 101966229#0 101966229#1 -101966238#1 101966239 93917260#1 -124210486 94132453#4 94132453#0 94132453#1 94132455#0 94132455#1 93516579#0 -454549845 -232119712 -445900688#1 -445900688#0"/>
    </vehicle>
    <vehicle depart="120.87" id="57" departLane="best" departSpeed="max">
        <route edges="-1115991584#2 -1115991584#1 -1115991584#0 -1116322036#1 -1116322036#0 102825237#0 102825237#1 102825237#2 102825237#3 102825237#4 102825237#5 102825238 102694900#2 102694900#3 97535993#0 97535993#1 95593743#0 95593743#1 95593743#2 95593743#3 665467170#0 665467170#1 665467170#2 665467170#3 665467170#4 665467170#5 665467170#6 665467170#7 665467170#8 665467170#9 96614440#1 539700223 539672015#0 539672015#1 96614442 94252644#0 94252644#1 539700226 539672014 539700225 96614444#0 96614444#1 95595126#0 95595126#1 95595126#2"/>
    </vehicle>
    <vehicle depart="122.00" id="122">
        <route edges="-94392701#1 -94392701#0 94252641#0 94252641#1 -94392700#1 -94392700#0 539672012 567578099 -94392698 94252650#0 94252650#1 569027940 567578097#0 567578097#1 94252639#0 94252639#1 94252639#2 94252639#3"/>
    </vehicle>
    <vehicle depart="123.00" id="123">
        <route edges="101962754#0 101962753#2 1104490491 101962755#0 101962755#1 147855374#9 567558161#0 567558161#1 147855375 240751742 1232198391 95260872#0 95260872#1 93516579#4 93516579#0 93516579#1 93516579#2 95260873#0 96612663#0 96612663#1 96612663#2 96612663#3 102818450#2 102818450#3 102818450#4 454549844#0 454549844#1 454549844#2 1116322034#0 1116322034#1 1116322034#2 1116322036#0 1116322036#1 1115991584#0 1115991584#1 1115991584#2"/>
    </vehicle>
    <vehicle depart="127.00" id="127">
        <route edges="99029266#2 99027559#2 93976560#2 93950926#9 93950926#10 93950926#11 99027559#0"/>
    </vehicle>
    <vehicle depart="129.00" id="129">
        <route edges="102696588#0 102696588#1 102696588#2 102696596 102825237#4 102825237#5 197048728#0 102825242#1 97681571#4 97681571#5 97681571#6 97681571#7"/>
    </vehicle>
    <vehicle depart="129.19" id="34" departLane="best" departSpeed="max">
        <route edges="103010274#0 103010274#1 103010274#2 1116322034#0 1116322034#1 1116322034#2 102825237#0 102825237#1 102825237#2 102851883 96612661#0 97536331#2 97536331#3 102695824"/>
    </vehicle>
    <vehicle depart="130.00" id="130">
        <route edges="96612664#1 96612664#2 96612664#3 232119712 454549845 93516579#1 93516579#2 95260873#0 96612663#0 96612663#1 -97536331#2 96612661#1"/>
    </vehicle>
    <vehicle depart="132.00" id="132">
        <route edges="94252645 539700227#0 539700227#1 -95595127#1 -95595127#0 539700226 539672014 539700225 96614444#0 96614444#1 95595126#0 95595126#1 95595126#2 95595126#3 95595126#4 94252639#0 94252639#1 94252639#2 94252639#3"/>
    </vehicle>
    <vehicle depart="135.00" id="135">
        <route edges="94120358#1 94120358#2 94120358#3 94120358#4 94120358#5 94120358#6 96346738#3 96346738#0 -94137783 94137789 569027932 94137804#0 94137773 -97535993#2 -97535993#1 -97535993#0 102694900#0 102694900#1 102694900#2 102825242#0 102825242#1 97681571#4"/>
    </vehicle>
    <vehicle depart="137.74" id="55" departLane="best" departSpeed="max">
        <route edges="-1115991584#2 -1115991584#1 -1115991584#0 -1116322036#1 -1116322036#0 102825237#0 102825237#1 102825237#2 102825237#3 102825237#4 102825237#5 197048728#0 102825242#1 97681571#4 97681571#5 102694207#0"/>
    </vehicle>
    <vehicle depart="139.00" id="139">
        <route edges="102825237#2 1103600164 102851882#0 102851882#1 1115991584#2"/>
    </vehicle>
    <vehicle depart="140.00" id="140">
        <route edges="540512675 20026219 164715303#0 164715303#1 164715303#2 20026406 20026341#0 20026341#1 20026341#2 540512633 540512676#0 454549847#0 454549847#1 178227486#0 178227486#1 93978668#0 93978668#1 93978668#2 101966235#0 101966235#1 101966235#2 101966235#3 101966235#4 101966235#5 101966235#6 101966235#7 101966229#1 -101966238#1 101966239 -93917260#0 567558161#1 147855376#0 94137811#0 94137811#1 96346738#0 96346738#1 96346738#2 96346738#3 -94137811#1"/>
    </vehicle>
    <vehicle depart="143.00" id="143">
        <route edges="94392707#2 569027941 94252651#0 94252651#1 94392694#0 94392694#1 94252661#3 94252661#0 94252661#1 -428130456#1 -428130456#0 567558163#0 567558163#1 438147565 -94137765 94137777 567558162 569027934 1232198391 95260872#0 95260872#1 93516579#4 93516579#0 -454549845 -232119712 -445900688#1 -445900688#0"/>
    </vehicle>
    <vehicle depart="143.28" id="93" departLane="best" departSpeed="max">
        <route edges="97681572#0 97681572#1 97681572#2 102694207#1 102694207#2 102694206#7 97535993#1 97535993#2 438147567 94137804#2 569027931 567558163#0 94137785 94137783 96346738#1 96346738#2 -94120358#6 -94120358#5 -94120358#4 -94120358#3 -94120358#2 -94120358#1 -94120358#0 559486118#1 93915878#0 101969262#0"/>
    </vehicle>
    <vehicle depart="145.00" id="145">
        <route edges="-101966235#1 -101966235#0 -93978668#2 -93978668#1 -93978668#0 22921471#4 22887544#0 22887544#1 22887544#2 540512676#2 540512676#3 540512634 20026341#0 20026341#1 20026341#2 20026479 20026701#0 20026701#1 20026701#2 1116324296#0 1116324296#1 1116324296#2 1116324296#3 1192906931#0 1192906931#1 232120214"/>
    </vehicle>
    <vehicle depart="148.00" id="148">
        <route edges="147855374#8 147855374#9 567558161#0 567558161#1 147855376#0 94137811#0 94137811#1 96346738#0 96346738#1 94252652 94252661#1 94252661#2 94252661#3 -94130235#1 -94130235#0 93628276#1 93628276#2 93628276#3 101969263#0 101969263#1 539672009 93628270#0 93628270#1 93628270#2 22887438#0 -22875661#4 -22875661#3 -22875661#2 -22875661#1 -22875661#0 22875659#2 -102290845#1 -102290845#0"/>
    </vehicle>
    <vehicle depart="148.60" id="73" departLane="best" departSpeed="max">
        <route edges="-1115991584#2 -1115991584#1 -1115991584#0 -1116322036#1 -1116322036#0 102825237#0 102825237#1 102825237#2 102825237#3 102825237#4 102825237#5 102825238 102694900#2 102694900#3 97535993#0 97535993#1 97535993#2 438147567 94137804#2 94252655#0 94252655#1 95277284 567578094 567558165"/>
    </vehicle>
    <vehicle depart="150.27" id="134" departLane="best" departSpeed="max">
        <route edges="-1115991584#2 -1115991584#1 -1115991584#0 -1116322036#1 -1116322036#0 102825237#0 102825237#1 102825237#2 102825237#3 102825237#4 102825237#5 102825238 102694900#2 102694900#3 97535993#0 97535993#1 97535993#2 438147567 94137804#2 569027931 567558163#0 94137785 94137783 96346738#1 96346738#2 -94120358#6 -94120358#5 -94120358#4 -94120358#3 -94120358#2 -94120358#1 -94120358#0 559486118#1 93917261#0 93917261#1 -101969260"/>
    </vehicle>
    <vehicle depart="151.31" id="76" departLane="best" departSpeed="max">
        <route edges="445900688#0 445900688#1 232119712 454549845 93516579#1 93516579#2 93516579#3 93516579#4 -94132455#1 -94132455#0 94132453#2 94132453#3 124210486 95261198 1103605170#0 1103605170#1 224964017#0"/>
    </vehicle>
    <vehicle depart="154.00" id="154">
        <route edges="93919117#1 93919111#2 26331384#3 26331384#4 26331384#5 539698483 26331384#0 26331384#1 236387360#0 236387360#1 567558158#2 569027936 22887504#0 22887504#1 22887504#2 102287915#0 102287915#1 102284664#0 102284664#1 102284664#2 102284664#3 94130232 93628276#0 94130235#0 94130235#1 94252661#0 94252661#1 -428130456#1 -428130456#0 567558163#0 567558163#1 569027932 94137804#0 94137773 -97535993#2 95593743#0 95593743#1 95593743#2 95593743#3 665467170#0 95277283#2"/>
    </vehicle>
    <vehicle depart="156.00" id="156">
        <route edges="102287915#1 102284664#0 102284664#1 102284664#2 102284664#3 94130232 93628276#0 94130235#0 94130235#1 94252661#0 94252661#1 -428130456#1 -428130456#0 567558163#0 567558163#1 438147565 -94137765 94137777 567558162 569027934 1232198391 95260872#0 95260872#1 93516579#4 93516579#0 -454549845 -232119712 -445900688#1 -445900688#0"/>
    </vehicle>
    <vehicle depart="161.00" id="161">
        <route edges="93976560#0 93976560#1 93976560#2 93976560#3 93950928#0 93950928#1 93950928#2 93950928#3 539672010#0 539672010#1 -101969263#1 -101969263#0 539672008 539699080 93628276#0 94130235#0 94130235#1 94252661#0 94252661#1 -428130456#1 -428130456#0 567558163#0 567558163#1 569027932 94137804#0 94137773 -97535993#2 -97535993#1 102695820#0 102695820#1 102695820#2 -97536331#3 96612663#2 96612663#3"/>
    </vehicle>
    <vehicle depart="162.00" id="162">
        <route edges="-1115991584#1 -1115991584#0 -1116322036#1 -1116322036#0 102825237#0 102825237#1 102825237#2 102851883 96612661#0 96612661#1 96612661#2 93516579#2 93516579#3 93516579#4 93516579#0 -454549845 -232119712 -445900688#1 -445900688#0"/>
    </vehicle>
    <vehicle depart="164.00" id="164">
        <route edges="93950926#9 93950926#10 99029269 99027559#1 99027559#2 99027559#3 99025561 -665581513 -99025560 98642050#3 98642050#4 98990102#2 98990102#3 98990102#4 -98989098#3 -98989098#2 -98989098#1 98545703#0 98545703#1 98545702 539667085#1 96614450 539700222#0 637399645#0 637399645#1 637399645#2 637399645#3 102850654#4"/>
    </vehicle>
    <vehicle depart="165.00" id="165">
        <route edges="93976560#0 93976560#1 93976560#2 93976560#3 93950928#0 93950928#1 93950928#2 93950928#3 539672010#0 539672010#1 -101969263#1 -101969263#0 539672008 539699080 93628276#0 94130235#0 94130235#1 94252661#0 94252661#1 -428130456#1 -428130456#0 567558163#0 567558163#1 569027932 94137804#0 94137773 -97535993#2 -97535993#1 102695820#0 102695820#1"/>
    </vehicle>
    <vehicle depart="166.00" id="166">
        <route edges="93630409#1 93630409#2 93630409#3 93630409#4 441650775 22887531#0 22887531#1 22887531#2 93917265 147855374#0 93917259#0 93917259#1 93917259#2 94120358#1 94120358#2 94120358#3 94120358#4 94120358#5 94120358#6 96346738#3 96346738#0 -94137783 94137789 569027932 94137804#0 94137773 -97535993#2 -97535993#1 -97535993#0 102694900#0 102694900#1 102694900#2 102825242#0 102825242#1 97681571#4"/>
    </vehicle>
    <vehicle depart="168.00" id="168">
        <route edges="-98990102#1 98993768 98993769#2 665581513 93976560#0 93976560#1 93976560#2 93976560#3 93950928#0 93950928#1 93950928#2 93950928#3 539672010#0 539672010#1 -101969263#1 -101969263#0 539672008 93917262 559486118#0 559486118#1 93917261#0 93917261#1 93917261#2 101962746#0 101962746#1 101962747#0 101962747#1 101962747#2 147855374#4 147855374#5 101966231 101966229#3 101966229#0 -101966235#7 -101966235#6 -101966235#5 -101966235#4 -101966235#3 -101966235#2 -101966235#1 -101966235#0 93978668#3 93978668#4"/>
    </vehicle>