<?xml version="1.0" encoding="UTF-8"?>

<!-- generated on 2024-12-03 16:53:51 by Eclipse SUMO duarouter Version v1_17_0+0507-8eb8f3bd1d0
<configuration xmlns:xsi="http://www.w3.org/2001/XMLSchema-instance" xsi:noNamespaceSchemaLocation="http://sumo.dlr.de/xsd/duarouterConfiguration.xsd">

    <input>
        <net-file value="viladecans.net.xml"/>
        <route-files value="trips.trips.xml"/>
    </input>

    <output>
        <output-file value="viladecans.rou.xml"/>
    </output>

    <report>
        <ignore-errors value="true"/>
    </report>

</configuration>
-->

<routes xmlns:xsi="http://www.w3.org/2001/XMLSchema-instance" xsi:noNamespaceSchemaLocation="http://sumo.dlr.de/xsd/routes_file.xsd">
    <vehicle id="1" depart="1.00">
        <route edges="102825242#1 97681571#4 97681571#5 102694207#0 102694207#1 102694207#2 102694207#3 95593743#2 95593743#3 665467170#0 665467170#1 665467170#2 665467170#3 665467170#4 665467170#5 665467170#6 665467170#7 665467170#8 665467170#9 96614440#1 539700223 539672015#0 98855834#0 98855834#1 98855834#2 98855834#3 98855834#4 98550013 437995546 98640750#0 98640750#1 98640750#2 -98989098#6 -98989098#5 -98989098#4 -98989098#3 -98989098#2"/>
    </vehicle>
    <vehicle id="2" depart="2.00">
        <route edges="58801797#0 58801797#1 58801797#2 103964838#3 103964838#4 103964838#5 103964838#6 103964838#7 103964838#0 103964838#1 110058643#0 110058643#1 110058643#2 1104609142#1 1104609142#2 58801803#0 58801803#1 295047601#2 539861452#0 539861452#1 539667095#0 539667095#1 539667095#2 1165469152#0 1165469152#1 1165469152#2 1165469152#3 1165469154#5 1165469153#0 1165469153#1 1165469153#2 1165469153#3 1116009378#4 1116009378#0 1116009379#0 1116009379#1 1116009379#2 1116009379#3 1116009376#5 1116009376#0 1165469159#0 1165469159#1 1165469160 1116009377#0 1116009377#1 1116009377#2 1116009377#3 1116009377#4 97106112#3 97106119#0 97106119#1 97106119#2 97106119#3 97106119#4 97106119#5 208418744 208418743#0 208418743#1 96616031#2 909783275#0 909783275#1 909783275#2 909783275#3 96617608#0 438132552#1 438132546#1"/>
    </vehicle>
    <vehicle id="3" depart="3.00">
        <route edges="96617277#1 96617277#2 96614421#1 96616040#0 96616040#1 539700922#0 96617272#0 96617272#1 96617273 -204331653#4 96617275#0 97680600#0 97680600#1 97678824#0 97678824#1 97678824#2 97678824#3 97678824#4 97678824#5 97678824#6 97678824#7 -97675054#8 -97675054#7 97772830#2 97772830#3 97772828#1 1029856084#3 539700920#0 539700920#1 539700920#2 539700920#3 20026755 540513236 -540714693#3 -540714693#2 -540714693#1 -540714693#0 540714692#0 540714692#1 540714692#2 -154766475#2 -154766475#1 -154766475#0 540512678 154766483#0 154766483#1 1018466676 154766476#0 154766476#1 154766476#2 540714689 154766496#0 154766496#1 154766496#2 564116377 383315646#0 383315646#1 383315646#2 383315646#3 383315646#4 540714687 540714686 540512681 564116378#0 564116378#1 437519467#0 437519467#1 437519467#2 437519467#3 437519467#4 437519467#5 -154766478#2 -154766478#1 -154766478#0"/>
    </vehicle>
    <vehicle id="6" depart="6.00">
        <route edges="-1115991586#1 -1115991586#0 -1228972046 -1228972039 -1115991584#4 -1115991584#3 -1115991584#2 -1115991584#1 -1115991584#0 -1116322036#1 -1116322036#0 102825237#0 102825237#1 102825237#2 102825237#3 102825237#4 102825237#5 102825238 102694900#2 102694900#3 97535993#0 97535993#1 97535993#2 438147567 94137804#2 569027931 567558163#0 94137785 94137783 96346738#1 96346738#2 -94120358#6 -94120358#5"/>
    </vehicle>
    <vehicle id="7" depart="7.00">
        <route edges="415698700 22875666#3 22875666#4 22875667 22875654#2 22875654#3 22875659#0 22875659#1 22875661#0 22875661#1 22875666#0 22875666#1 22875666#2"/>
    </vehicle>
    <vehicle id="9" depart="9.00">
        <route edges="93951869#3 93950926#8 93976560#3 93950928#0 93950928#1 93950928#2 93950928#3 539672010#0 539672010#1 -101969263#1 -101969263#0 539672008 93917262 559486118#0 559486118#1 93917261#0 93917261#1 93917261#2 101962746#0 101962746#1 101962747#0 101962747#1 101962747#2 147855374#4 147855374#5 101966231 101966229#3 101966229#0 -101966235#7"/>
    </vehicle>
    <vehicle id="10" depart="10.00">
        <route edges="93950935#0 539700229#0 539700229#1 93950520#0 93950928#3 539672010#0 539672010#1 -101969263#1 -101969263#0 539672008 539699080 93628276#0 94130235#0 94130235#1 94252661#0 94252661#1 -428130456#1 -428130456#0 567558163#0 567558163#1 438147565 -94137765 94137777 567558162 569027934 1232198391 95260872#0 95260872#1 93516579#4 93516579#0 -454549845 -232119712 -445900688#1 -445900688#0 -22700029 22699980#3 22699980#0 -188839136#1 -188839136#0 -188839137 188839135 -461396941 461396939#0 461396939#1"/>
    </vehicle>
    <vehicle id="11" depart="11.00">
        <route edges="1115991584#2 1115991584#3 1115991584#4 1228972039 1228972046 22699877#0 22699877#1 22699877#2 22699877#3 22699877#4 22699877#5 -154766475#2 -154766475#1 -154766475#0 540512678 154766483#0 154766483#1 -22818681#2 -22818681#1 -22818681#0 22699980#2 22699980#3 22699980#0 -188839136#1 -188839136#0 -188839137 -22699953 -437519470 -463044911 -22699949 -463044912 -443592230"/>
    </vehicle>
    <vehicle id="12" depart="12.00">
        <route edges="97772830#2 133865632 41601834#4 97675054#8 97675054#9 98021460#2 98021460#3 98021460#4 95277282#4 95277282#5 95277282#6 97681572#0 97681572#1 97681572#2 102694207#1 102694207#2 102694206#7 102695820#0 102695820#1 102695820#2 102695824 1232166418#1 569027933 567558162 240751741 -147855375 147855376#0 147855376#1 -147855374#9 -147855374#8 101962753#0 101962753#1 101962753#2 1104490491"/>
    </vehicle>
    <vehicle id="13" depart="13.00">
        <route edges="-188840128#1 22818655#0 22818655#1 22818681#2 1018466676 540714690 540512679#0 540512679#1 232119940 154766475#0 154766475#1 154766475#2 -22699877#5 -22699877#4 -22699877#3 -22699877#2 -22699877#1 -22699877#0 1115991586#0 1115991586#1 1115991586#2 540512677 539700918#0 539700918#1 539700918#2 539700918#3 41601834#0 41601834#1 41601834#2 97772828#0 97772828#1 97772828#2 97772828#3 97772828#4 97733793#0 97733793#1 97733793#2 97733793#3 97733793#4 95720651#0 95720651#1 95720651#2 95720651#3 95720651#4 539667094#2 539667094#3 20026984#0 20026984#1 20026984#2 -20026878#3 -20026878#2 -20026878#1 -20026878#0"/>
    </vehicle>
    <vehicle id="14" depart="14.00">
        <route edges="95260872#0 95260872#1 93516579#4 93516579#0 93516579#1 93516579#2 95260873#0 96612663#0 96612663#1 96612663#2 96612663#3 102818450#2 102818450#3 102818450#4 454549844#0 454549844#1 454549844#2 1116322034#0 1116322034#1 1116322034#2 1116322036#0 1116322036#1 1115991584#0 1115991584#1 1115991584#2 1115991584#3 1115991584#4 1228972039 1228972046 1115991586#0 1115991586#1 1115991586#2 540512677 539700918#0 539700918#1 539700918#2 539700918#3 539700918#4 539700918#5 539700918#6 540513236 -540714693#3 -540714693#2 -540714693#1 -540714693#0 -1113306549#4 34888155#0 34888155#1"/>
    </vehicle>
    <vehicle id="16" depart="16.00">
        <route edges="22818655#0 22818655#1 103010274#0 103010274#1 103010274#2 1116322034#0 1116322034#1 1116322034#2 102825237#0 102825237#1 102825237#2 102825237#3 102825237#4 102825237#5 102825238 102694900#2 102694900#3 97535993#0 97535993#1 95593743#0 95593743#1 95593743#2 95593743#3 665467170#0 665467170#1 665467170#2 665467170#3 665467170#4 665467170#5 665467170#6 665467170#7 665467170#8 665467170#9 96614440#1 539700223 539672015#0 98855834#0 98855834#1 98855834#2 98855834#3 98855834#4 98550014#0 98550014#1"/>
    </vehicle>
    <vehicle id="17" depart="17.00">
        <route edges="1216917020#1 1216917020#2 1216917020#3 426723134#0 426723134#1 426723134#2 426723134#3 95720648#0 95720648#1 95720648#2 95720645#2 95720645#3 95720645#4 95720645#5 95720645#0 95720651#0 95720651#1 95720651#2 95720651#3 95720651#4 539667094#2 539667094#3 539861455 164715306 173593849 1244072109#0 1244072109#1 34888154#0 34888154#1 34888154#2 34888154#3 34888154#4 540714692#0 540714692#1 540714692#2 -22699877#5 -22699877#4 -22699877#3 -22699877#2 -22699877#1 -22699877#0 -1228972046 -1228972039 -1115991584#4 -1115991584#3 -1115991584#2 -1115991584#1 -1115991584#0 -1116322036#1 -1116322036#0 102825237#0 102825237#1 102825237#2 102825237#3 102825237#4 102825237#5 102825238 102694900#2 102694900#3 97535993#0 97535993#1 97535993#2 438147567 94137804#2 569027931 428130456#0 428130456#1 94252661#2 94252661#3 -94130235#1 -94130235#0 93628276#1 93628276#2 93628276#3 101969263#0 101969263#1 539672009 93628270#0 93628270#1 93628270#2 22887438#0 22887438#1 22875689#0 22875689#1 22875689#2"/>
    </vehicle>
    <vehicle id="18" depart="18.00">
        <route edges="94252637#1 436982219#0 436982219#1 436982219#2 436982219#3 436982219#4 94252650#1 569027940 567578097#0 567578097#1 94252639#0 94252639#1 94252639#2 94252639#3 94252639#4 94252639#5 94252639#6 97678824#2 97678824#3 97678824#4 97678824#5 97678824#6 97678824#7 -97675054#8 -97675054#7 97772830#2 97772830#3 97772828#1 97772828#2 97772828#3 97772828#4 97733793#0 204331640 -1192906928#1 -1192906928#0 173593856#0 173593856#1 173593856#2 173593856#3 173593856#4 173593856#5 173593856#6 173593856#7 173593856#8 173593856#9 103966571#1 1232198389 564116392#0 103966574#0 103966574#1 564116393#1 103306925#0 103306925#1 208428858 208428861#0 208428861#1 208428861#2 208428861#3 208428861#4 208428861#5 383315645#0"/>
    </vehicle>
    <vehicle id="19" depart="19.00">
        <route edges="95277283#8 97678824#5 97678824#6 97678824#7 97675054#9 98021460#2 98021460#3 98021460#4 95277282#4 95277282#5 95277282#6 97681572#0 97681572#1 97681572#2 102694207#1 102694207#2 102694206#7 102695820#0 102695820#1 102695820#2 102695824 1232166418#1 569027933 567558162 240751741 240751742"/>
    </vehicle>
    <vehicle id="20" depart="20.00">
        <route edges="539667095#4 539667095#5 539667095#6 539861453 295047601#0 295047601#1 295047601#2 539861452#0 539861452#1 539667095#0 539667095#1 539667095#2 1165469152#0 1165469152#1 1165469152#2 1165469152#3 1165469154#5 1165469153#0 1165469153#1 -1216918181#2 -1216918181#1 -1216918181#0"/>
    </vehicle>
    <vehicle id="21" depart="21.00">
        <route edges="101287095#0 101287095#1 101287095#2 101287099#0 101287099#1 102297060 93950928#0 93950928#1 93950928#2 93950928#3 539672010#0 539672010#1 -101969263#1 -101969263#0 539672008 539699080 93628276#0 94130235#0 94130235#1 94252661#0 94252661#1 -428130456#1 -428130456#0 567558163#0 567558163#1 569027932 94137804#0 94137773 -97535993#2 -97535993#1 -97535993#0 102694900#0 102836997 102818450#0 102818450#1 102818450#2 102818450#3 102818450#4 454549844#0 454549844#1 454549844#2 1116322034#0 1116322034#1 1116322034#2 102825237#0 102825237#1 102825237#2 1103600164 102851882#0"/>
    </vehicle>
    <vehicle id="22" depart="22.00">
        <route edges="-147855374#6 -147855374#5 -147855374#4 -147855374#3 -147855374#2 -147855374#1 -147855374#0 442675496 567558160 539672007 -93917261#3 -93917261#2 -93917261#1 -93917261#0 -559486118#1 -559486118#0 94130232 93628276#0 93628276#1 93628276#2 93628276#3 101969263#0 93950926#0 93950926#1 93950926#2 93950926#3 93950926#4 93950926#5 93950926#6 93950926#7 93950926#8 93976560#3 102297055 101287103 101287095#0 101287095#1"/>
    </vehicle>
    <vehicle id="24" depart="24.00">
        <route edges="39528410 39528411 39528413 210809087 39295270 210809134 210809096#0 210809096#1 210809096#2 550629023#1 550629023#2 550629023#3 550629023#4 39295273#0 39295273#1 39295273#2 39522255 -211718696 -211718706 -39522253#1 -39522253#0 1040468917#0 1040468917#1 -212298821 212298815 -152005133#2 -152005133#1 -152005133#0 147260736 1040468918#1 609410343 22650506 609410345 609410344#0 609410344#1 22650507 609410327#0 609410327#1 609410327#2 609410333 609410324#0 609410324#1 609410324#2 609410324#3 609410324#4 609410324#5 609410324#6 609410324#7 609410324#8 609410324#9 609410324#10 609410324#11 609410324#12 609410324#13 609410324#14 739521138#0 739521138#1 1036660548#0 1036660548#1 1036660548#2 1036660548#3 609410346#0 609410346#1 540512683#6 540512683#7 540512683#0 20279737 22699876#0 22699876#1 22699876#2 22699876#3 22699876#4 22699876#5 22699876#6 22699876#7 22699876#8 22699885 1033859678#0 1033859678#1 540512682#0 540512682#1 154766486#0 154766486#1 154766486#2 154766486#3 154766486#4 437519685#0 437519685#1 540512681 437519468#0 437519468#1 437519468#2 383315643#0 383315643#1 383315643#2 383315643#3 208428860 208428859#0 208428859#1 137899131#0 103067386#0 103067386#1 232224166#0 232224166#1 232224166#2 232224166#3 103027505#0 103027505#1 103027505#2 103027505#3 103027505#4 103964838#7 103964838#0 103964838#1 110058643#0 110058643#1 110058643#2 1104609142#1 1104609142#2 58801803#0 58801803#1 295047601#2 539861452#0 539861452#1 539667095#0 539667095#1 539667095#2 1165469152#0 1165469152#1 1165469152#2 1165469152#3 1165469154#5 1165469154#6 1165469154#0 1165469154#1 1165469154#2 1165469154#3 1165469151#0 1165469151#1 1165469151#2"/>
    </vehicle>
    <vehicle id="25" depart="25.00">
        <route edges="1188682904 1186547995 22650429 1040340959 1040340960 22650437 1040468918#0 1040468918#1 609410343 22650506 609410345 609410344#0 609410344#1 22650507 609410327#0 609410327#1 609410327#2 609410333 609410324#0 609410324#1 609410324#2 609410324#3 609410324#4 609410324#5 609410324#6 609410324#7 609410324#8 609410324#9 609410324#10 609410324#11 609410324#12 609410324#13 609410324#14 739521138#0 739521138#1 1036660548#0 1036660548#1 1036660548#2 1036660548#3 609410346#0 609410346#1 540512683#6 540512683#7 540512683#0 20279737 22699876#0 22699876#1 22699876#2 22699876#3 22699876#4 22699876#5 22699876#6 22699876#7 22699876#8 22699885 1033859678#0 1033859678#1 540512682#0 540512682#1 154766486#0 154766486#1 154766486#2 154766486#3 154766486#4 437519685#0 437519685#1 540512681 564116378#0 564116378#1 437519467#0 437519467#1 437519467#2 437519467#3 437519467#4 437519467#5 383315644#0 383315644#1 383315644#2 383315644#3 383315644#4 540512680#0 540512680#1 564116390 154766492#0 154766492#1 154766492#2 540512679#0 540512679#1 232119940 154766475#0 154766475#1 154766475#2 -22699877#5 -22699877#4 -22699877#3 -22699877#2 -22699877#1 -22699877#0 1115991586#0 1115991586#1 1115991586#2 540512677 539700918#0 539700918#1 539700918#2 539700918#3 41601834#0 41601834#1 41601834#2 41601834#3 41601834#4 97675054#8 97675054#9 98021460#2 98021460#3 98021460#4 98021460#5 98021460#6 98021460#7 95277286#3 102848201#0 102848201#1 102848200#4 102848200#0 96617277#0 96617277#1 96617277#2 96614421#1 96616040#0 96616040#1 539700922#0 539700922#1 96616033 539700921 96616031#0 96616031#1 96616031#2 564116389 96616032#0 96616032#1 -97100391#3 -97100391#2 -97100391#1 -97100391#0"/>
    </vehicle>
    <vehicle id="26" depart="26.00">
        <route edges="102696593#1 102695820#1 102696599 102696588#2 102696596 102825237#4 102825237#5 197048728#0 102825242#1 97681571#4 97681571#5 97681571#6 97681571#7 97681571#8 95277282#6 95277282#7 97681570#0 97681570#1 97681570#2 97681570#3"/>
    </vehicle>
    <vehicle id="27" depart="27.00">
        <route edges="406908592#4 406908592#5 406908592#6 665553811#0 665553811#1 665553811#2 437982468#0 437982468#1 437518129#4 437518129#5 437518129#6 437518129#7 437518129#0 437518131#0 437518131#1 437518131#2 437518127#4 -437518125#1 -437518125#0 304278509#2 304278509#3 304278509#4 437519469#2 540512682#0 540512682#1 154766486#0 154766486#1 154766486#2 154766486#3 154766486#4 437519685#0 437519685#1 540512681 564116378#0 564116378#1 437519467#0 437519467#1 437519467#2 437519467#3 437519467#4 437519467#5 383315644#0 383315644#1 383315644#2 383315644#3 383315644#4 540512680#0 34898121#0 34898121#1 34898121#2 34898121#3 34898121#4 34898121#5"/>
    </vehicle>
    <vehicle id="28" depart="28.00">
        <route edges="-609410324#6 -609410324#5 -609410324#4 -609410324#3 -609410324#2 -609410324#1 -609410324#0 609410336 1186547996#0 1186547996#1 1188682902#0 1188682902#1 609410327#0 609410327#1 609410327#2 609410333 609410324#0 609410324#1 609410324#2 609410324#3 609410324#4 609410324#5 609410324#6 609410324#7 609410324#8 609410324#9 609410324#10 609410324#11 609410324#12 609410324#13 609410324#14 739521138#0 739521138#1 1036660548#0 1036660548#1 1036660548#2 1036660548#3 609410346#0 609410346#1 540512683#6 540512683#7 540512683#0 20279737 22699876#0 22699876#1 22699876#2 22699876#3 22699876#4 22699876#5 22699876#6 22699876#7 22699876#8 22699885 1033859678#0 1033859678#1 540512682#0 540512682#1 154766486#0 154766486#1 154766486#2 154766486#3 154766486#4 437519685#0 437519685#1 540512681 564116378#0 564116378#1 437519467#0 437519467#1 437519467#2 437519467#3 437519467#4 437519467#5 383315644#0 383315644#1 154766473#0 154766473#1 154766473#2 154766496#2 564116377"/>
    </vehicle>
    <vehicle id="29" depart="29.00">
        <route edges="-559486118#0 94130232 93628276#0 94130235#0 94130235#1 94252661#0 94252661#1 -428130456#1 -428130456#0 567558163#0 567558163#1 569027932 94137804#0 94137773 -97535993#2 -97535993#1 -97535993#0 102694900#0 102694900#1 102694900#2 102825242#0 102825242#1 97681571#4 104031268#0 104031268#1 98021460#1 -97675054#9 -97675054#8 -97675054#7 97772830#2 97772830#3 97772828#1 97772828#2 97772828#3 97772828#4 97733793#0 97733793#1 97733793#2 97733793#3 97733793#4 95720651#0 95720651#1 95720651#2 95720651#3 95720651#4 539667094#2 539667094#3 539861455 164715306 1244072110 1222056733 95720654#0 95720654#1 95720654#2 95720654#3 97479791#0 97479791#1 97479791#2 1195588783#0"/>
    </vehicle>
    <vehicle id="31" depart="31.00">
        <route edges="22887544#0 157160715 178227486#1 93978668#0 93978668#1 93978668#2 101966235#0 101966235#1 101966235#2 101966235#3 101966235#4 101966235#5 101966235#6 101966235#7 101966229#1 -101966238#1 101966239 -93917260#0 567558161#1 147855375 240751742 1232198391 94137753 1232166418#0 1232166418#1 94137758 94137765 124212330 94137804#0 94137773 -97535993#2 95593743#0 95593743#1 95593743#2 95593743#3 665467170#0 665467170#1 665467170#2 665467170#3 665467170#4 665467170#5 665467170#6 665467170#7 665467170#8 665467170#9 96614440#1 96614415#0 96614415#1 96614415#2 539700222#0 539700222#1 539700222#2 96614426 96614421#0 96614421#1 96616040#0 96616040#1 539700922#0 539700922#1 96616033 539700921 96616031#0 96616031#1 96616031#2 909783275#0 909783275#1 -438132549#3 -438132549#2 438132553#2"/>
    </vehicle>
    <vehicle id="33" depart="33.00">
        <route edges="101287096 101287095#1 101287095#2 101287099#0 101287099#1 102297060 93950928#0 93950928#1 93950928#2 93950928#3 539672010#0 539672010#1 -101969263#1 -101969263#0 539672008 539699080 93628276#0 94130235#0 94130235#1 94252661#0 -94252652 96346738#2 96346738#3 -94137811#1 -94137811#0 147855376#1 567558161#0 93917260#0 93917260#1 95261198 1103605171 454549846#0 454549846#1 454549846#2 -1116324296#3 -1116324296#2 -1116324296#1 -1116324296#0"/>
    </vehicle>
    <vehicle id="34" depart="34.00">
        <route edges="103968656 232224165 137899131#2 564116393#0 564116393#1 103306925#0 103306925#1 208428858 208428861#0 208428861#1 208428861#2 208428861#3 208428861#4 208428861#5 383315645#0 383315645#1 383315645#2 564116378#1 437519467#0 437519467#1 437519467#2 437519467#3 437519467#4 437519467#5 383315644#0 383315644#1 383315644#2 383315644#3 383315644#4 540512680#0 540512680#1 564116390 154766492#0 154766492#1 154766492#2 540512679#0 540512679#1 540714691 154766483#0 154766483#1 -22818681#2 103010274#0 103010274#1 103010274#2 1116322034#0 1116322034#1 1116322034#2 102825237#0 102825237#1 102825237#2 102851883 96612661#0 97536331#2 97536331#3 102695824"/>
    </vehicle>
    <vehicle id="35" depart="35.00">
        <route edges="-97536331#3 96612663#2 96612663#3 102818450#2 102818450#3 102818450#4 454549844#0 454549844#1 454549844#2 1116322034#0 1116322034#1 1116322034#2 1116322036#0 1116322036#1 1115991584#0 1115991584#1 1115991584#2 1115991584#3 1115991584#4 1228972039 1228972046 1115991586#0 1115991586#1 1115991586#2 540512677 539700918#0 539700918#1 539700918#2 539700918#3 41601834#0 41601834#1 41601834#2 97772828#0 97772828#1 97772828#2 97772828#3 97772828#4 97733793#0 97733793#1 97733793#2 97733793#3"/>
    </vehicle>
    <vehicle id="36" depart="36.00">
        <route edges="95720654#3 58801798#0 58801798#1 58801798#2 58801798#3 58801798#4 58801798#5 58801798#6 58801798#7 58801798#8 58801798#9 103964843#2 95720635#0 95720635#1 95720635#2 103965296#5 103965296#6 103965296#0 103966570#0 103966570#1 103966570#2 103966571#0 103966571#1 103967428#0 103967428#1 564116391 567558167 103967429#0 103967429#1 103967429#2"/>
    </vehicle>
    <vehicle id="39" depart="39.00">
        <route edges="102695824 1232166418#1 569027933 567558162 569027934 1232198391 95260872#0 95260872#1 93516579#4 -94132455#1 -94132455#0 94132453#2 94132453#3 124210486 22921471#0 22921471#1 22921471#2 22921471#3 93978668#0 93978668#1 93978668#2 101966235#0 101966235#1 101966235#2 101966235#3 101966235#4 101966235#5 101966235#6 101966235#7"/>
    </vehicle>
    <vehicle id="40" depart="40.00">
        <route edges="22921458#0 22921458#1 26359434#0 26359434#1 26359434#2 1019494072 461440847 93630409#0 93630409#1 93630409#2 93630409#3 93630409#4 441650775 22887531#0 22887531#1 22887531#2 93917265 147855374#0 93917259#0 93917259#1 93917259#2 94120358#1 94120358#2 94120358#3 94120358#4 94120358#5 94120358#6 96346738#3 96346738#0 -94137783 94137789 569027932 94137804#0 94137773 -97535993#2 95593743#0 95593743#1 95593743#2 95593743#3 665467171#0 102694206#6"/>
    </vehicle>
    <vehicle id="44" depart="44.00">
        <route edges="-188839136#1 -188839136#0 -188839137 188839135 -461396941 -22818654#3 -22818654#2 -22818654#1 -22818654#0 -564116376 564116377 154766478#0 154766478#1 154766478#2 383315644#0 383315644#1 383315644#2 383315644#3 383315644#4 540512680#0 34898121#0 34898121#1 34898121#2 34898121#3 34898121#4 34898121#5 34898121#6 34898121#7 103967427#1 110058635 564116392#0 564116392#1 1232198388 110058622#0 110058622#1 103965296#2 103965296#3 110058633#0 110058633#1 110058633#2 103964843#4 103964843#5 110058640#0 110058640#1 110058640#2 103964838#5 103964838#6 103964838#7 103964838#0 103964838#1 110058643#0 110058643#1 110058643#2 1104609142#1 1104609142#2 58801803#0 58801803#1 295047601#2 539861452#0 539861452#1 539667095#0 539667095#1 539667095#2 1165469152#0 1165469152#1 1165469152#2 1165469152#3 1165469154#5 1165469153#0 1165469153#1 -1216918181#2 -1216918181#1 -1216918182#1"/>
    </vehicle>
    <vehicle id="46" depart="46.00">
        <route edges="93917261#0 93917261#1 -101969260 -93917261#0 -559486118#1 94120358#0 94120358#1 94120358#2 94120358#3 94120358#4 94120358#5 94120358#6 96346738#3 96346738#0 -94137783 94137789 569027932 94137804#0 94137773 -97535993#2 95593743#0 95593743#1 95593743#2 95593743#3 665467171#0 665467171#1 665467171#2 665467171#3 97681571#7 95277283#6 95277283#7 95277283#8 95277283#9 133857742"/>
    </vehicle>
    <vehicle id="48" depart="48.00">
        <route edges="99027559#2 93976560#2 93976560#3 93950928#0 93950928#1 93950928#2 93950928#3 539672010#0 539672010#1 -101969263#1 -101969263#0 539672008 539699080 93628276#0 94130235#0 94130235#1 94252661#0 94252661#1 -428130456#1 -428130456#0 567558163#0 567558163#1 438147565 -94137765 94137777 567558162 569027934 1232198391 95260872#0 95260872#1 93516579#4 93516579#0 -454549845 -232119712 -445900688#1 -445900688#0 -22700029 22699980#3 22699980#0 -188839136#1 -188839136#0 -188839137 -22699953 -437519470 -463044911 -22699949 -463044912 22699926"/>
    </vehicle>
    <vehicle id="49" depart="49.00">
        <route edges="98546972#1 98546970#1 -98550013 98550014#0 98855837#0 98855837#1 98855837#2 -98989098#1 -98989098#0 94252644#1 539700226 539672014 539700225 96614444#0 96614444#1 95595126#0 95595126#1 95595126#2 95595126#3 95595126#4 94252639#0 94252639#1 102694206#1 102694206#2 102694206#3 102694206#4 95277283#3"/>
    </vehicle>
    <vehicle id="50" depart="50.00">
        <route edges="-102841119#2 -102841119#1 97106106#0 97106106#1 97106106#2 97106106#3 97675054#1 97675054#2 97675054#3 97675054#4 1029856084#0 1029856084#1 1029856084#2 97772828#2 97772828#3 97772828#4 97733793#0 204331640 -1192906928#1 -1192906928#0 173593856#0 173593856#1 173593856#2 34888154#3 34888154#4 540714693#0 540714693#1 540714693#2"/>
    </vehicle>
    <vehicle id="51" depart="51.00">
        <route edges="438132550 97100391#2 97100391#3 96616032#2 539667087 96616028 539667086#0 539667086#1 96614431#0 96614431#1 539667085#0 539667085#1 96614418 539672015#0 539672015#1 96614442 94252644#0 94252644#1 539700226 539672014 539700225 96614444#0 96614444#1 95595126#0 95595126#1 95595126#2 95595126#3 95595126#4 567578096 567578095 567558164 -1188682900 -567558165 -567578094 -95277284 428130542 567558163#0 567558163#1 438147565 -94137765 94137777 567558162 569027934 1232198391 95260872#0 95260872#1 93516579#4 93516579#0 -454549845 -232119712 -445900688#1 -445900688#0 -22700029 22699980#3 22699980#0 22699980#1 22818681#0 22818681#1"/>
    </vehicle>
    <vehicle id="53" depart="53.00">
        <route edges="-212298815 212298821 39522251#0 39522251#1 1040468917#0 1040468917#1 -212298821 212298815 -152005133#2 -152005133#1 -152005133#0 147260736 1040468918#1 609410343 22650506 609410345 609410344#0 609410344#1 22650507 609410327#0 609410327#1 609410327#2 609410333 609410324#0 609410324#1 609410324#2 609410324#3 609410324#4 609410324#5 609410324#6 609410324#7 609410324#8 609410324#9 609410324#10 609410324#11 609410324#12 609410324#13 609410324#14 739521138#0 739521138#1 1036660548#0 1036660548#1 1036660548#2 1036660548#3 609410346#0 609410346#1 540512683#6 540512683#7 540512683#0 20279737 22699876#0 22699876#1 22699876#2 22699876#3 22699876#4 22699876#5 22699876#6 22699876#7 22699876#8 22699885 1033859678#0 1033859678#1 540512682#0 540512682#1 154766486#0 154766486#1 154766486#2 154766486#3 154766486#4 437519685#0 437519685#1 540512681 564116378#0 564116378#1 437519467#0 437519467#1 437519467#2 437519467#3 437519467#4 437519467#5 383315644#0 383315644#1 383315644#2 383315644#3 383315644#4 540512680#0 540512680#1 564116390 154766492#0 154766492#1 154766492#2 540512679#0 540512679#1 232119940 154766475#0 154766475#1"/>
    </vehicle>
    <vehicle id="54" depart="54.00">
        <route edges="178128361 441661952 232224166#0 103968656 232224167#0 232224167#1 232224167#2 232224167#3 232224167#4 232224167#5 103965296#3 103965296#4 103965296#5 -1244072109#8 -1244072109#7 -1244072109#6 -1244072109#5 -1244072109#4 -1244072109#3 -1244072109#2 -1244072109#1 -1244072109#0 -173593849 1244072110 539861454 1116048794 539667094#0 539667094#1 539667094#2 1222056731 97733819#0 97733819#1 97733819#2 97733819#3"/>
    </vehicle>
    <vehicle id="55" depart="55.00">
        <route edges="95720654#2 95720654#3 58801798#0 58801798#1 58801798#2 208416869#0 208416869#1 208416869#2 -1244072109#3 -1244072109#2 34888154#0 34888154#1 34888154#2 34888154#3 34888154#4 540714692#0 540714692#1 540714692#2 -22699877#5 -22699877#4 -22699877#3 -22699877#2 -22699877#1 -22699877#0 -1228972046 -1228972039 -1115991584#4 -1115991584#3 -1115991584#2 -1115991584#1 -1115991584#0 -1116322036#1 -1116322036#0 102825237#0 102825237#1 102825237#2 102825237#3 102825237#4 102825237#5 197048728#0 102825242#1 97681571#4 97681571#5 102694207#0"/>
    </vehicle>
    <vehicle id="56" depart="56.00">
        <route edges="208418746#1 208418746#2 208418745 97106116#0 97106116#1 97106116#2 97106116#3 97106116#4 97106112#0 97106112#1 97106112#2 97106112#3 97106119#0 97106119#1 97106119#2 97106119#3 97106119#4 97106119#5 208418744 208418743#0 208418743#1 96616031#2 564116389 539667088 539700921 -204331653#5 -204331653#4 96617275#0 97680600#0 97680600#1 97678824#0 97678824#1 97678824#2 97678824#3 97678824#4 97678824#5 97678824#6 97678824#7 -97675054#8 -97675054#7 97772830#2 97772830#3 97772828#1 1029856084#3 539700920#0 539700920#1 539700920#2 539700920#3 20026755 540513236 -540714693#3 -540714693#2 -540714693#1 -540714693#0 540714692#0 540714692#1 540714692#2 -154766475#2 -154766475#1 -154766475#0 540512678 154766483#0 154766483#1 1018466676 154766476#0 154766476#1 154766476#2 540714689 154766496#0 154766496#1 154766496#2 564116377 383315646#0 383315646#1 383315646#2 383315646#3 383315646#4 540714687 165554898#0 165554898#1 1024923882#0 1024923882#1 1024923882#2 437519684#0 437519684#1 437519684#2 437519469#0 437519469#1 437519469#2 -1033859678#1 -1033859678#0 -22699885 -22699876#8 -22699876#7 -22699876#6 -22699876#5 -22699876#4 -22699876#3 -22699876#2 -22699876#1 -22699876#0 20279758 540512683#2 540512683#3 540512683#4 540512683#5 540512683#6 20279726 20279824#0 20279824#1 20279824#2 770383777 770383776#0 770383776#1 770383776#2 770383776#3 770383776#4 770383776#5 770383776#6 770383776#7 39529378#0 112714561 691372262#0 691372262#1 691372262#2 691372262#3 691372262#4 691372262#5 691372261 117070373#0 117070373#1 -691372261 -691372262#5 -691372262#4 -691372262#3 -691372262#2 -691372262#1"/>
    </vehicle>
    <vehicle id="57" depart="57.00">
        <route edges="97535998#5 1244072109#0 1244072109#1 34888154#0 34888154#1 34888154#2 34888154#3 34888154#4 540714692#0 540714692#1 540714692#2 -22699877#5 -22699877#4 -22699877#3 -22699877#2 -22699877#1 -22699877#0 -1228972046 -1228972039 -1115991584#4 -1115991584#3 -1115991584#2 -1115991584#1 -1115991584#0 -1116322036#1 -1116322036#0 102825237#0 102825237#1 102825237#2 102825237#3 102825237#4 102825237#5 102825238 102694900#2 102694900#3 97535993#0 97535993#1 95593743#0 95593743#1 95593743#2 95593743#3 665467170#0 665467170#1 665467170#2 665467170#3 665467170#4 665467170#5 665467170#6 665467170#7 665467170#8 665467170#9 96614440#1 539700223 539672015#0 539672015#1 96614442 94252644#0 94252644#1 539700226 539672014 539700225 96614444#0 96614444#1 95595126#0 95595126#1 95595126#2"/>
    </vehicle>
    <vehicle id="59" depart="59.00">